McPAT (version 1.0 of Aug, 2013) is computing the target processor...
 

McPAT (version 1.0 of Aug, 2013) results  (current print level is 5)
*****************************************************************************************
  Technology 22 nm
  Using Long Channel Devices When Appropriate
  Interconnect metal projection= aggressive interconnect technology projection
  Core clock Rate(MHz) 3600

*****************************************************************************************
Processor: 
  Area = 331.575 mm^2
  Peak Power = 321.185 W
  Total Leakage = 44.5507 W
  Peak Dynamic = 276.634 W
  Subthreshold Leakage = 44.2569 W
  Subthreshold Leakage with power gating = 15.5045 W
  Gate Leakage = 0.293844 W
  Runtime Dynamic = 28.3463 W

  Total Cores: 32 cores 
  Device Type= ITRS high performance device type
    Area = 282.812 mm^2
    Peak Dynamic = 276.633 W
    Subthreshold Leakage = 39.7016 W
    Subthreshold Leakage with power gating = 13.5663 W
    Gate Leakage = 0.283163 W
    Runtime Dynamic = 28.3463 W

  Total L3s: 
  Device Type= ITRS high performance device type
    Area = 47.0681 mm^2
    Peak Dynamic = 0.000870839 W
    Subthreshold Leakage = 4.50639 W
    Subthreshold Leakage with power gating = 1.75162 W
    Gate Leakage = 0.0100019 W
    Runtime Dynamic = 5.62223e-05 W

  Total NoCs (Network/Bus): 
  Device Type= ITRS high performance device type
    Area = 1.69427 mm^2
    Peak Dynamic = 0 W
    Subthreshold Leakage = 0.0488532 W
    Subthreshold Leakage with power gating = 0.014656 W
    Gate Leakage = 0.000679296 W
    Runtime Dynamic = 0 W

*****************************************************************************************
Core:
      Area = 8.83789 mm^2
      Peak Dynamic = 17.6197 W
      Subthreshold Leakage = 1.24068 W
      Subthreshold Leakage with power gating = 0.423947 W
      Gate Leakage = 0.00884884 W
      Runtime Dynamic = 5.71996 W

      Instruction Fetch Unit:
        Area = 1.27919 mm^2
        Peak Dynamic = 5.74107 W
        Subthreshold Leakage = 0.201057 W
        Subthreshold Leakage with power gating = 0.0747186 W
        Gate Leakage = 0.00161561 W
        Runtime Dynamic = 0.432054 W

          Instruction Cache:
            Area = 0.652161 mm^2
            Peak Dynamic = 4.49084 W
            Subthreshold Leakage = 0.0875977 W
            Subthreshold Leakage with power gating = 0.0398556 W
            Gate Leakage = 0.000896735 W
            Runtime Dynamic = 0.204647 W

          Branch Target Buffer:
            Area = 0.153336 mm^2
            Peak Dynamic = 0.107627 W
            Subthreshold Leakage = 0.0179173 W
            Subthreshold Leakage with power gating = 0.00810978 W
            Gate Leakage = 7.44666e-05 W
            Runtime Dynamic = 0.0111916 W

          Branch Predictor:
            Area = 0.031053 mm^2
            Peak Dynamic = 0.0342172 W
            Subthreshold Leakage = 0.00458876 W
            Subthreshold Leakage with power gating = 0.00191983 W
            Gate Leakage = 2.16698e-05 W
            Runtime Dynamic = 0.00401662 W

              Global Predictor:
                Area = 0.00995681 mm^2
                Peak Dynamic = 0.00950852 W
                Subthreshold Leakage = 0.00172478 W
                Subthreshold Leakage with power gating = 0.000723306 W
                Gate Leakage = 7.8416e-06 W
                Runtime Dynamic = 0.00106007 W

              Local Predictor:
              L1_Local Predictor:
                Area = 0.00570481 mm^2
                Peak Dynamic = 0.00802062 W
                Subthreshold Leakage = 0.000876881 W
                Subthreshold Leakage with power gating = 0.000367388 W
                Gate Leakage = 4.43463e-06 W
                Runtime Dynamic = 0.000917482 W

              L2_Local Predictor:
                Area = 0.00289767 mm^2
                Peak Dynamic = 0.00398848 W
                Subthreshold Leakage = 0.00048391 W
                Subthreshold Leakage with power gating = 0.000197984 W
                Gate Leakage = 2.7078e-06 W
                Runtime Dynamic = 0.000456242 W

              Chooser:
                Area = 0.00995681 mm^2
                Peak Dynamic = 0.00950852 W
                Subthreshold Leakage = 0.00172478 W
                Subthreshold Leakage with power gating = 0.000723306 W
                Gate Leakage = 7.8416e-06 W
                Runtime Dynamic = 0.00106007 W

              RAS:
                Area = 0.00253692 mm^2
                Peak Dynamic = 0.00717956 W
                Subthreshold Leakage = 0.000262308 W
                Subthreshold Leakage with power gating = 0.000105831 W
                Gate Leakage = 1.552e-06 W
                Runtime Dynamic = 0.000978994 W

          Instruction Buffer:
            Area = 0.00457032 mm^2
            Peak Dynamic = 0.399167 W
            Subthreshold Leakage = 0.000368864 W
            Subthreshold Leakage with power gating = 0.00012853 W
            Gate Leakage = 2.16072e-06 W
            Runtime Dynamic = 0.0685551 W

          Instruction Decoder:
            Area = 0.427303 mm^2
            Peak Dynamic = 0.557586 W
            Subthreshold Leakage = 0.0861737 W
            Subthreshold Leakage with power gating = 0.0235019 W
            Gate Leakage = 0.000530726 W
            Runtime Dynamic = 0.143644 W

      Renaming Unit:
        Area = 0.0885597 mm^2
        Peak Dynamic = 2.92993 W
        Subthreshold Leakage = 0.0187491 W
        Subthreshold Leakage with power gating = 0.009366 W
        Gate Leakage = 0.000274281 W
        Runtime Dynamic = 0.457486 W

          Int Front End RAT:
            Area = 0.0277132 mm^2
            Peak Dynamic = 0.487067 W
            Subthreshold Leakage = 0.00156023 W
            Subthreshold Leakage with power gating = 0.000889329 W
            Gate Leakage = 1.20209e-05 W
            Runtime Dynamic = 0.111773 W

          FP Front End RAT:
            Area = 0.0402703 mm^2
            Peak Dynamic = 2.26672 W
            Subthreshold Leakage = 0.0126281 W
            Subthreshold Leakage with power gating = 0.00719803 W
            Gate Leakage = 0.000171325 W
            Runtime Dynamic = 0.329513 W

          Free List:
            Area = 0.00980768 mm^2
            Peak Dynamic = 0.0245223 W
            Subthreshold Leakage = 0.000150194 W
            Subthreshold Leakage with power gating = 7.5768e-05 W
            Gate Leakage = 1.08162e-06 W
            Runtime Dynamic = 0.0161996 W

      Load Store Unit:
        Area = 2.02906 mm^2
        Peak Dynamic = 3.76789 W
        Subthreshold Leakage = 0.150507 W
        Subthreshold Leakage with power gating = 0.0649054 W
        Gate Leakage = 0.00103703 W
        Runtime Dynamic = 1.52787 W

          Data Cache:
            Area = 1.62445 mm^2
            Peak Dynamic = 3.50657 W
            Subthreshold Leakage = 0.14014 W
            Subthreshold Leakage with power gating = 0.060307 W
            Gate Leakage = 0.000901876 W
            Runtime Dynamic = 1.23522 W

          LoadQ:
            Area = 0.0207189 mm^2
            Peak Dynamic = 0.0822927 W
            Subthreshold Leakage = 0.00252286 W
            Subthreshold Leakage with power gating = 0.00143803 W
            Gate Leakage = 1.97785e-05 W
            Runtime Dynamic = 0.0822927 W

          StoreQ:
            Area = 0.0247255 mm^2
            Peak Dynamic = 0.105178 W
            Subthreshold Leakage = 0.0034342 W
            Subthreshold Leakage with power gating = 0.0019575 W
            Gate Leakage = 2.55214e-05 W
            Runtime Dynamic = 0.210356 W

      Memory Management Unit:
        Area = 0.0478667 mm^2
        Peak Dynamic = 0.251617 W
        Subthreshold Leakage = 0.010497 W
        Subthreshold Leakage with power gating = 0.00467217 W
        Gate Leakage = 0.000133538 W
        Runtime Dynamic = 0.0734388 W

          Itlb:
            Area = 0.0153187 mm^2
            Peak Dynamic = 0.0751147 W
            Subthreshold Leakage = 0.00236017 W
            Subthreshold Leakage with power gating = 0.0013453 W
            Gate Leakage = 1.72825e-05 W
            Runtime Dynamic = 0.00937252 W

          Dtlb:
            Area = 0.0217794 mm^2
            Peak Dynamic = 0.0637608 W
            Subthreshold Leakage = 0.00372634 W
            Subthreshold Leakage with power gating = 0.00212401 W
            Gate Leakage = 2.64018e-05 W
            Runtime Dynamic = 0.0640662 W

      Execution Unit:
        Area = 2.14962 mm^2
        Peak Dynamic = 4.90814 W
        Subthreshold Leakage = 0.277787 W
        Subthreshold Leakage with power gating = 0.0848929 W
        Gate Leakage = 0.00229396 W
        Runtime Dynamic = 3.22484 W

          Register Files:
            Area = 0.133129 mm^2
            Peak Dynamic = 0.212021 W
            Subthreshold Leakage = 0.0028163 W
            Subthreshold Leakage with power gating = 0.000892763 W
            Gate Leakage = 2.138e-05 W
            Runtime Dynamic = 0.0854157 W

              Integer RF:
                Area = 0.0834736 mm^2
                Peak Dynamic = 0.117878 W
                Subthreshold Leakage = 0.00172228 W
                Subthreshold Leakage with power gating = 0.000521558 W
                Gate Leakage = 1.3533e-05 W
                Runtime Dynamic = 0.075485 W

              Floating Point RF:
                Area = 0.0496557 mm^2
                Peak Dynamic = 0.0941428 W
                Subthreshold Leakage = 0.00109402 W
                Subthreshold Leakage with power gating = 0.000371205 W
                Gate Leakage = 7.84697e-06 W
                Runtime Dynamic = 0.00993068 W

          Instruction Scheduler:
            Area = 0.53269 mm^2
            Peak Dynamic = 3.36823 W
            Subthreshold Leakage = 0.0327819 W
            Subthreshold Leakage with power gating = 0.0179486 W
            Gate Leakage = 0.000257818 W
            Runtime Dynamic = 1.09827 W

              Instruction Window:
                Area = 0.250713 mm^2
                Peak Dynamic = 1.44458 W
                Subthreshold Leakage = 0.0233811 W
                Subthreshold Leakage with power gating = 0.0133031 W
                Gate Leakage = 0.000189603 W
                Runtime Dynamic = 0.487253 W

              FP Instruction Window:
                Area = 0.0803106 mm^2
                Peak Dynamic = 0.848283 W
                Subthreshold Leakage = 0.00495177 W
                Subthreshold Leakage with power gating = 0.00279839 W
                Gate Leakage = 4.09447e-05 W
                Runtime Dynamic = 0.284499 W

              ROB:
                Area = 0.201666 mm^2
                Peak Dynamic = 1.07537 W
                Subthreshold Leakage = 0.00444903 W
                Subthreshold Leakage with power gating = 0.00184714 W
                Gate Leakage = 2.72708e-05 W
                Runtime Dynamic = 0.326519 W

          Integer ALUs (Count: 6 ):
            Area = 0.230726 mm^2
            Peak Dynamic = 0.23296 W
            Subthreshold Leakage = 0.0781696 W
            Subthreshold Leakage with power gating = 0.021319 W
            Gate Leakage = 0.000632815 W
            Runtime Dynamic = 0.363204 W

          Floating Point Units (FPUs) (Count: 2 ):
            Area = 1.11344 mm^2
            Peak Dynamic = 0.620102 W
            Subthreshold Leakage = 0.0943076 W
            Subthreshold Leakage with power gating = 0.0257203 W
            Gate Leakage = 0.000763458 W
            Runtime Dynamic = 0.62194 W

          Complex ALUs (Mul/Div) (Count: 1 ):
            Area = 0.115363 mm^2
            Peak Dynamic = 0.138298 W
            Subthreshold Leakage = 0.0390848 W
            Subthreshold Leakage with power gating = 0.0106595 W
            Gate Leakage = 0.000316407 W
            Runtime Dynamic = 0.341179 W

          Results Broadcast Bus:
            Area Overhead = 0.0135028 mm^2
            Peak Dynamic = 0.317834 W
            Subthreshold Leakage = 0.0262163 W
            Subthreshold Leakage with power gating = 0.0071499 W
            Gate Leakage = 0.000212232 W
            Runtime Dynamic = 0.714834 W

    L2
    Area = 1.08921 mm^2
    Peak Dynamic = 0.0209973 W
    Subthreshold Leakage = 0.217129 W
    Subthreshold Leakage with power gating = 0.0858604 W
    Gate Leakage = 0.000539995 W
    Runtime Dynamic = 0.00426853 W

*****************************************************************************************
Core:
      Area = 8.83789 mm^2
      Peak Dynamic = 8.35527 W
      Subthreshold Leakage = 1.24068 W
      Subthreshold Leakage with power gating = 0.423947 W
      Gate Leakage = 0.00884884 W
      Runtime Dynamic = 0.72988 W

      Instruction Fetch Unit:
        Area = 1.27919 mm^2
        Peak Dynamic = 1.0986 W
        Subthreshold Leakage = 0.201057 W
        Subthreshold Leakage with power gating = 0.0747186 W
        Gate Leakage = 0.00161561 W
        Runtime Dynamic = 4.21188e-08 W

          Instruction Cache:
            Area = 0.652161 mm^2
            Peak Dynamic = 0 W
            Subthreshold Leakage = 0.0875977 W
            Subthreshold Leakage with power gating = 0.0398556 W
            Gate Leakage = 0.000896735 W
            Runtime Dynamic = 0 W

          Branch Target Buffer:
            Area = 0.153336 mm^2
            Peak Dynamic = 0.107627 W
            Subthreshold Leakage = 0.0179173 W
            Subthreshold Leakage with power gating = 0.00810978 W
            Gate Leakage = 7.44666e-05 W
            Runtime Dynamic = 0 W

          Branch Predictor:
            Area = 0.031053 mm^2
            Peak Dynamic = 0.0342172 W
            Subthreshold Leakage = 0.00458876 W
            Subthreshold Leakage with power gating = 0.00191983 W
            Gate Leakage = 2.16698e-05 W
            Runtime Dynamic = 0 W

              Global Predictor:
                Area = 0.00995681 mm^2
                Peak Dynamic = 0.00950852 W
                Subthreshold Leakage = 0.00172478 W
                Subthreshold Leakage with power gating = 0.000723306 W
                Gate Leakage = 7.8416e-06 W
                Runtime Dynamic = 0 W

              Local Predictor:
              L1_Local Predictor:
                Area = 0.00570481 mm^2
                Peak Dynamic = 0.00802062 W
                Subthreshold Leakage = 0.000876881 W
                Subthreshold Leakage with power gating = 0.000367388 W
                Gate Leakage = 4.43463e-06 W
                Runtime Dynamic = 0 W

              L2_Local Predictor:
                Area = 0.00289767 mm^2
                Peak Dynamic = 0.00398848 W
                Subthreshold Leakage = 0.00048391 W
                Subthreshold Leakage with power gating = 0.000197984 W
                Gate Leakage = 2.7078e-06 W
                Runtime Dynamic = 0 W

              Chooser:
                Area = 0.00995681 mm^2
                Peak Dynamic = 0.00950852 W
                Subthreshold Leakage = 0.00172478 W
                Subthreshold Leakage with power gating = 0.000723306 W
                Gate Leakage = 7.8416e-06 W
                Runtime Dynamic = 0 W

              RAS:
                Area = 0.00253692 mm^2
                Peak Dynamic = 0.00717956 W
                Subthreshold Leakage = 0.000262308 W
                Subthreshold Leakage with power gating = 0.000105831 W
                Gate Leakage = 1.552e-06 W
                Runtime Dynamic = 0 W

          Instruction Buffer:
            Area = 0.00457032 mm^2
            Peak Dynamic = 0.399167 W
            Subthreshold Leakage = 0.000368864 W
            Subthreshold Leakage with power gating = 0.00012853 W
            Gate Leakage = 2.16072e-06 W
            Runtime Dynamic = 0 W

          Instruction Decoder:
            Area = 0.427303 mm^2
            Peak Dynamic = 0.557586 W
            Subthreshold Leakage = 0.0861737 W
            Subthreshold Leakage with power gating = 0.0235019 W
            Gate Leakage = 0.000530726 W
            Runtime Dynamic = 0 W

      Renaming Unit:
        Area = 0.0885597 mm^2
        Peak Dynamic = 2.92993 W
        Subthreshold Leakage = 0.0187491 W
        Subthreshold Leakage with power gating = 0.009366 W
        Gate Leakage = 0.000274281 W
        Runtime Dynamic = 4.21188e-08 W

          Int Front End RAT:
            Area = 0.0277132 mm^2
            Peak Dynamic = 0.487067 W
            Subthreshold Leakage = 0.00156023 W
            Subthreshold Leakage with power gating = 0.000889329 W
            Gate Leakage = 1.20209e-05 W
            Runtime Dynamic = 0 W

          FP Front End RAT:
            Area = 0.0402703 mm^2
            Peak Dynamic = 2.26672 W
            Subthreshold Leakage = 0.0126281 W
            Subthreshold Leakage with power gating = 0.00719803 W
            Gate Leakage = 0.000171325 W
            Runtime Dynamic = 0 W

          Free List:
            Area = 0.00980768 mm^2
            Peak Dynamic = 0.0245223 W
            Subthreshold Leakage = 0.000150194 W
            Subthreshold Leakage with power gating = 7.5768e-05 W
            Gate Leakage = 1.08162e-06 W
            Runtime Dynamic = 0 W

      Load Store Unit:
        Area = 2.02906 mm^2
        Peak Dynamic = 0.882694 W
        Subthreshold Leakage = 0.150507 W
        Subthreshold Leakage with power gating = 0.0649054 W
        Gate Leakage = 0.00103703 W
        Runtime Dynamic = 4.21188e-08 W

          Data Cache:
            Area = 1.62445 mm^2
            Peak Dynamic = 0.882694 W
            Subthreshold Leakage = 0.14014 W
            Subthreshold Leakage with power gating = 0.060307 W
            Gate Leakage = 0.000901876 W
            Runtime Dynamic = 0 W

          LoadQ:
            Area = 0.0207189 mm^2
            Peak Dynamic = 0 W
            Subthreshold Leakage = 0.00252286 W
            Subthreshold Leakage with power gating = 0.00143803 W
            Gate Leakage = 1.97785e-05 W
            Runtime Dynamic = 0 W

          StoreQ:
            Area = 0.0247255 mm^2
            Peak Dynamic = 0 W
            Subthreshold Leakage = 0.0034342 W
            Subthreshold Leakage with power gating = 0.0019575 W
            Gate Leakage = 2.55214e-05 W
            Runtime Dynamic = 0 W

      Memory Management Unit:
        Area = 0.0478667 mm^2
        Peak Dynamic = 0.0758138 W
        Subthreshold Leakage = 0.010497 W
        Subthreshold Leakage with power gating = 0.00467217 W
        Gate Leakage = 0.000133538 W
        Runtime Dynamic = 4.21188e-08 W

          Itlb:
            Area = 0.0153187 mm^2
            Peak Dynamic = 0 W
            Subthreshold Leakage = 0.00236017 W
            Subthreshold Leakage with power gating = 0.0013453 W
            Gate Leakage = 1.72825e-05 W
            Runtime Dynamic = 0 W

          Dtlb:
            Area = 0.0217794 mm^2
            Peak Dynamic = 0 W
            Subthreshold Leakage = 0.00372634 W
            Subthreshold Leakage with power gating = 0.00212401 W
            Gate Leakage = 2.64018e-05 W
            Runtime Dynamic = 0 W

      Execution Unit:
        Area = 2.14962 mm^2
        Peak Dynamic = 3.36823 W
        Subthreshold Leakage = 0.277787 W
        Subthreshold Leakage with power gating = 0.0848929 W
        Gate Leakage = 0.00229396 W
        Runtime Dynamic = 0.72988 W

          Register Files:
            Area = 0.133129 mm^2
            Peak Dynamic = 0 W
            Subthreshold Leakage = 0.0028163 W
            Subthreshold Leakage with power gating = 0.000892763 W
            Gate Leakage = 2.138e-05 W
            Runtime Dynamic = 0 W

              Integer RF:
                Area = 0.0834736 mm^2
                Peak Dynamic = 0 W
                Subthreshold Leakage = 0.00172228 W
                Subthreshold Leakage with power gating = 0.000521558 W
                Gate Leakage = 1.3533e-05 W
                Runtime Dynamic = 0 W

              Floating Point RF:
                Area = 0.0496557 mm^2
                Peak Dynamic = 0 W
                Subthreshold Leakage = 0.00109402 W
                Subthreshold Leakage with power gating = 0.000371205 W
                Gate Leakage = 7.84697e-06 W
                Runtime Dynamic = 0 W

          Instruction Scheduler:
            Area = 0.53269 mm^2
            Peak Dynamic = 3.36823 W
            Subthreshold Leakage = 0.0327819 W
            Subthreshold Leakage with power gating = 0.0179486 W
            Gate Leakage = 0.000257818 W
            Runtime Dynamic = 0 W

              Instruction Window:
                Area = 0.250713 mm^2
                Peak Dynamic = 1.44458 W
                Subthreshold Leakage = 0.0233811 W
                Subthreshold Leakage with power gating = 0.0133031 W
                Gate Leakage = 0.000189603 W
                Runtime Dynamic = 0 W

              FP Instruction Window:
                Area = 0.0803106 mm^2
                Peak Dynamic = 0.848283 W
                Subthreshold Leakage = 0.00495177 W
                Subthreshold Leakage with power gating = 0.00279839 W
                Gate Leakage = 4.09447e-05 W
                Runtime Dynamic = 0 W

              ROB:
                Area = 0.201666 mm^2
                Peak Dynamic = 1.07537 W
                Subthreshold Leakage = 0.00444903 W
                Subthreshold Leakage with power gating = 0.00184714 W
                Gate Leakage = 2.72708e-05 W
                Runtime Dynamic = 0 W

          Integer ALUs (Count: 6 ):
            Area = 0.230726 mm^2
            Peak Dynamic = 0 W
            Subthreshold Leakage = 0.0781696 W
            Subthreshold Leakage with power gating = 0.021319 W
            Gate Leakage = 0.000632815 W
            Runtime Dynamic = 0.121647 W

          Floating Point Units (FPUs) (Count: 2 ):
            Area = 1.11344 mm^2
            Peak Dynamic = 0 W
            Subthreshold Leakage = 0.0943076 W
            Subthreshold Leakage with power gating = 0.0257203 W
            Gate Leakage = 0.000763458 W
            Runtime Dynamic = 0.36494 W

          Complex ALUs (Mul/Div) (Count: 1 ):
            Area = 0.115363 mm^2
            Peak Dynamic = 0 W
            Subthreshold Leakage = 0.0390848 W
            Subthreshold Leakage with power gating = 0.0106595 W
            Gate Leakage = 0.000316407 W
            Runtime Dynamic = 0.243293 W

          Results Broadcast Bus:
            Area Overhead = 0.0135028 mm^2
            Peak Dynamic = 0 W
            Subthreshold Leakage = 0.0262163 W
            Subthreshold Leakage with power gating = 0.0071499 W
            Gate Leakage = 0.000212232 W
            Runtime Dynamic = 0 W

    L2
    Area = 1.08921 mm^2
    Peak Dynamic = 0 W
    Subthreshold Leakage = 0.217129 W
    Subthreshold Leakage with power gating = 0.0858604 W
    Gate Leakage = 0.000539995 W
    Runtime Dynamic = 3.9683e-07 W

*****************************************************************************************
Core:
      Area = 8.83789 mm^2
      Peak Dynamic = 8.35527 W
      Subthreshold Leakage = 1.24068 W
      Subthreshold Leakage with power gating = 0.423947 W
      Gate Leakage = 0.00884884 W
      Runtime Dynamic = 0.72988 W

      Instruction Fetch Unit:
        Area = 1.27919 mm^2
        Peak Dynamic = 1.0986 W
        Subthreshold Leakage = 0.201057 W
        Subthreshold Leakage with power gating = 0.0747186 W
        Gate Leakage = 0.00161561 W
        Runtime Dynamic = 4.21188e-08 W

          Instruction Cache:
            Area = 0.652161 mm^2
            Peak Dynamic = 0 W
            Subthreshold Leakage = 0.0875977 W
            Subthreshold Leakage with power gating = 0.0398556 W
            Gate Leakage = 0.000896735 W
            Runtime Dynamic = 0 W

          Branch Target Buffer:
            Area = 0.153336 mm^2
            Peak Dynamic = 0.107627 W
            Subthreshold Leakage = 0.0179173 W
            Subthreshold Leakage with power gating = 0.00810978 W
            Gate Leakage = 7.44666e-05 W
            Runtime Dynamic = 0 W

          Branch Predictor:
            Area = 0.031053 mm^2
            Peak Dynamic = 0.0342172 W
            Subthreshold Leakage = 0.00458876 W
            Subthreshold Leakage with power gating = 0.00191983 W
            Gate Leakage = 2.16698e-05 W
            Runtime Dynamic = 0 W

              Global Predictor:
                Area = 0.00995681 mm^2
                Peak Dynamic = 0.00950852 W
                Subthreshold Leakage = 0.00172478 W
                Subthreshold Leakage with power gating = 0.000723306 W
                Gate Leakage = 7.8416e-06 W
                Runtime Dynamic = 0 W

              Local Predictor:
              L1_Local Predictor:
                Area = 0.00570481 mm^2
                Peak Dynamic = 0.00802062 W
                Subthreshold Leakage = 0.000876881 W
                Subthreshold Leakage with power gating = 0.000367388 W
                Gate Leakage = 4.43463e-06 W
                Runtime Dynamic = 0 W

              L2_Local Predictor:
                Area = 0.00289767 mm^2
                Peak Dynamic = 0.00398848 W
                Subthreshold Leakage = 0.00048391 W
                Subthreshold Leakage with power gating = 0.000197984 W
                Gate Leakage = 2.7078e-06 W
                Runtime Dynamic = 0 W

              Chooser:
                Area = 0.00995681 mm^2
                Peak Dynamic = 0.00950852 W
                Subthreshold Leakage = 0.00172478 W
                Subthreshold Leakage with power gating = 0.000723306 W
                Gate Leakage = 7.8416e-06 W
                Runtime Dynamic = 0 W

              RAS:
                Area = 0.00253692 mm^2
                Peak Dynamic = 0.00717956 W
                Subthreshold Leakage = 0.000262308 W
                Subthreshold Leakage with power gating = 0.000105831 W
                Gate Leakage = 1.552e-06 W
                Runtime Dynamic = 0 W

          Instruction Buffer:
            Area = 0.00457032 mm^2
            Peak Dynamic = 0.399167 W
            Subthreshold Leakage = 0.000368864 W
            Subthreshold Leakage with power gating = 0.00012853 W
            Gate Leakage = 2.16072e-06 W
            Runtime Dynamic = 0 W

          Instruction Decoder:
            Area = 0.427303 mm^2
            Peak Dynamic = 0.557586 W
            Subthreshold Leakage = 0.0861737 W
            Subthreshold Leakage with power gating = 0.0235019 W
            Gate Leakage = 0.000530726 W
            Runtime Dynamic = 0 W

      Renaming Unit:
        Area = 0.0885597 mm^2
        Peak Dynamic = 2.92993 W
        Subthreshold Leakage = 0.0187491 W
        Subthreshold Leakage with power gating = 0.009366 W
        Gate Leakage = 0.000274281 W
        Runtime Dynamic = 4.21188e-08 W

          Int Front End RAT:
            Area = 0.0277132 mm^2
            Peak Dynamic = 0.487067 W
            Subthreshold Leakage = 0.00156023 W
            Subthreshold Leakage with power gating = 0.000889329 W
            Gate Leakage = 1.20209e-05 W
            Runtime Dynamic = 0 W

          FP Front End RAT:
            Area = 0.0402703 mm^2
            Peak Dynamic = 2.26672 W
            Subthreshold Leakage = 0.0126281 W
            Subthreshold Leakage with power gating = 0.00719803 W
            Gate Leakage = 0.000171325 W
            Runtime Dynamic = 0 W

          Free List:
            Area = 0.00980768 mm^2
            Peak Dynamic = 0.0245223 W
            Subthreshold Leakage = 0.000150194 W
            Subthreshold Leakage with power gating = 7.5768e-05 W
            Gate Leakage = 1.08162e-06 W
            Runtime Dynamic = 0 W

      Load Store Unit:
        Area = 2.02906 mm^2
        Peak Dynamic = 0.882694 W
        Subthreshold Leakage = 0.150507 W
        Subthreshold Leakage with power gating = 0.0649054 W
        Gate Leakage = 0.00103703 W
        Runtime Dynamic = 4.21188e-08 W

          Data Cache:
            Area = 1.62445 mm^2
            Peak Dynamic = 0.882694 W
            Subthreshold Leakage = 0.14014 W
            Subthreshold Leakage with power gating = 0.060307 W
            Gate Leakage = 0.000901876 W
            Runtime Dynamic = 0 W

          LoadQ:
            Area = 0.0207189 mm^2
            Peak Dynamic = 0 W
            Subthreshold Leakage = 0.00252286 W
            Subthreshold Leakage with power gating = 0.00143803 W
            Gate Leakage = 1.97785e-05 W
            Runtime Dynamic = 0 W

          StoreQ:
            Area = 0.0247255 mm^2
            Peak Dynamic = 0 W
            Subthreshold Leakage = 0.0034342 W
            Subthreshold Leakage with power gating = 0.0019575 W
            Gate Leakage = 2.55214e-05 W
            Runtime Dynamic = 0 W

      Memory Management Unit:
        Area = 0.0478667 mm^2
        Peak Dynamic = 0.0758138 W
        Subthreshold Leakage = 0.010497 W
        Subthreshold Leakage with power gating = 0.00467217 W
        Gate Leakage = 0.000133538 W
        Runtime Dynamic = 4.21188e-08 W

          Itlb:
            Area = 0.0153187 mm^2
            Peak Dynamic = 0 W
            Subthreshold Leakage = 0.00236017 W
            Subthreshold Leakage with power gating = 0.0013453 W
            Gate Leakage = 1.72825e-05 W
            Runtime Dynamic = 0 W

          Dtlb:
            Area = 0.0217794 mm^2
            Peak Dynamic = 0 W
            Subthreshold Leakage = 0.00372634 W
            Subthreshold Leakage with power gating = 0.00212401 W
            Gate Leakage = 2.64018e-05 W
            Runtime Dynamic = 0 W

      Execution Unit:
        Area = 2.14962 mm^2
        Peak Dynamic = 3.36823 W
        Subthreshold Leakage = 0.277787 W
        Subthreshold Leakage with power gating = 0.0848929 W
        Gate Leakage = 0.00229396 W
        Runtime Dynamic = 0.72988 W

          Register Files:
            Area = 0.133129 mm^2
            Peak Dynamic = 0 W
            Subthreshold Leakage = 0.0028163 W
            Subthreshold Leakage with power gating = 0.000892763 W
            Gate Leakage = 2.138e-05 W
            Runtime Dynamic = 0 W

              Integer RF:
                Area = 0.0834736 mm^2
                Peak Dynamic = 0 W
                Subthreshold Leakage = 0.00172228 W
                Subthreshold Leakage with power gating = 0.000521558 W
                Gate Leakage = 1.3533e-05 W
                Runtime Dynamic = 0 W

              Floating Point RF:
                Area = 0.0496557 mm^2
                Peak Dynamic = 0 W
                Subthreshold Leakage = 0.00109402 W
                Subthreshold Leakage with power gating = 0.000371205 W
                Gate Leakage = 7.84697e-06 W
                Runtime Dynamic = 0 W

          Instruction Scheduler:
            Area = 0.53269 mm^2
            Peak Dynamic = 3.36823 W
            Subthreshold Leakage = 0.0327819 W
            Subthreshold Leakage with power gating = 0.0179486 W
            Gate Leakage = 0.000257818 W
            Runtime Dynamic = 0 W

              Instruction Window:
                Area = 0.250713 mm^2
                Peak Dynamic = 1.44458 W
                Subthreshold Leakage = 0.0233811 W
                Subthreshold Leakage with power gating = 0.0133031 W
                Gate Leakage = 0.000189603 W
                Runtime Dynamic = 0 W

              FP Instruction Window:
                Area = 0.0803106 mm^2
                Peak Dynamic = 0.848283 W
                Subthreshold Leakage = 0.00495177 W
                Subthreshold Leakage with power gating = 0.00279839 W
                Gate Leakage = 4.09447e-05 W
                Runtime Dynamic = 0 W

              ROB:
                Area = 0.201666 mm^2
                Peak Dynamic = 1.07537 W
                Subthreshold Leakage = 0.00444903 W
                Subthreshold Leakage with power gating = 0.00184714 W
                Gate Leakage = 2.72708e-05 W
                Runtime Dynamic = 0 W

          Integer ALUs (Count: 6 ):
            Area = 0.230726 mm^2
            Peak Dynamic = 0 W
            Subthreshold Leakage = 0.0781696 W
            Subthreshold Leakage with power gating = 0.021319 W
            Gate Leakage = 0.000632815 W
            Runtime Dynamic = 0.121647 W

          Floating Point Units (FPUs) (Count: 2 ):
            Area = 1.11344 mm^2
            Peak Dynamic = 0 W
            Subthreshold Leakage = 0.0943076 W
            Subthreshold Leakage with power gating = 0.0257203 W
            Gate Leakage = 0.000763458 W
            Runtime Dynamic = 0.36494 W

          Complex ALUs (Mul/Div) (Count: 1 ):
            Area = 0.115363 mm^2
            Peak Dynamic = 0 W
            Subthreshold Leakage = 0.0390848 W
            Subthreshold Leakage with power gating = 0.0106595 W
            Gate Leakage = 0.000316407 W
            Runtime Dynamic = 0.243293 W

          Results Broadcast Bus:
            Area Overhead = 0.0135028 mm^2
            Peak Dynamic = 0 W
            Subthreshold Leakage = 0.0262163 W
            Subthreshold Leakage with power gating = 0.0071499 W
            Gate Leakage = 0.000212232 W
            Runtime Dynamic = 0 W

    L2
    Area = 1.08921 mm^2
    Peak Dynamic = 0 W
    Subthreshold Leakage = 0.217129 W
    Subthreshold Leakage with power gating = 0.0858604 W
    Gate Leakage = 0.000539995 W
    Runtime Dynamic = 3.9683e-07 W

*****************************************************************************************
Core:
      Area = 8.83789 mm^2
      Peak Dynamic = 8.35527 W
      Subthreshold Leakage = 1.24068 W
      Subthreshold Leakage with power gating = 0.423947 W
      Gate Leakage = 0.00884884 W
      Runtime Dynamic = 0.72988 W

      Instruction Fetch Unit:
        Area = 1.27919 mm^2
        Peak Dynamic = 1.0986 W
        Subthreshold Leakage = 0.201057 W
        Subthreshold Leakage with power gating = 0.0747186 W
        Gate Leakage = 0.00161561 W
        Runtime Dynamic = 4.21188e-08 W

          Instruction Cache:
            Area = 0.652161 mm^2
            Peak Dynamic = 0 W
            Subthreshold Leakage = 0.0875977 W
            Subthreshold Leakage with power gating = 0.0398556 W
            Gate Leakage = 0.000896735 W
            Runtime Dynamic = 0 W

          Branch Target Buffer:
            Area = 0.153336 mm^2
            Peak Dynamic = 0.107627 W
            Subthreshold Leakage = 0.0179173 W
            Subthreshold Leakage with power gating = 0.00810978 W
            Gate Leakage = 7.44666e-05 W
            Runtime Dynamic = 0 W

          Branch Predictor:
            Area = 0.031053 mm^2
            Peak Dynamic = 0.0342172 W
            Subthreshold Leakage = 0.00458876 W
            Subthreshold Leakage with power gating = 0.00191983 W
            Gate Leakage = 2.16698e-05 W
            Runtime Dynamic = 0 W

              Global Predictor:
                Area = 0.00995681 mm^2
                Peak Dynamic = 0.00950852 W
                Subthreshold Leakage = 0.00172478 W
                Subthreshold Leakage with power gating = 0.000723306 W
                Gate Leakage = 7.8416e-06 W
                Runtime Dynamic = 0 W

              Local Predictor:
              L1_Local Predictor:
                Area = 0.00570481 mm^2
                Peak Dynamic = 0.00802062 W
                Subthreshold Leakage = 0.000876881 W
                Subthreshold Leakage with power gating = 0.000367388 W
                Gate Leakage = 4.43463e-06 W
                Runtime Dynamic = 0 W

              L2_Local Predictor:
                Area = 0.00289767 mm^2
                Peak Dynamic = 0.00398848 W
                Subthreshold Leakage = 0.00048391 W
                Subthreshold Leakage with power gating = 0.000197984 W
                Gate Leakage = 2.7078e-06 W
                Runtime Dynamic = 0 W

              Chooser:
                Area = 0.00995681 mm^2
                Peak Dynamic = 0.00950852 W
                Subthreshold Leakage = 0.00172478 W
                Subthreshold Leakage with power gating = 0.000723306 W
                Gate Leakage = 7.8416e-06 W
                Runtime Dynamic = 0 W

              RAS:
                Area = 0.00253692 mm^2
                Peak Dynamic = 0.00717956 W
                Subthreshold Leakage = 0.000262308 W
                Subthreshold Leakage with power gating = 0.000105831 W
                Gate Leakage = 1.552e-06 W
                Runtime Dynamic = 0 W

          Instruction Buffer:
            Area = 0.00457032 mm^2
            Peak Dynamic = 0.399167 W
            Subthreshold Leakage = 0.000368864 W
            Subthreshold Leakage with power gating = 0.00012853 W
            Gate Leakage = 2.16072e-06 W
            Runtime Dynamic = 0 W

          Instruction Decoder:
            Area = 0.427303 mm^2
            Peak Dynamic = 0.557586 W
            Subthreshold Leakage = 0.0861737 W
            Subthreshold Leakage with power gating = 0.0235019 W
            Gate Leakage = 0.000530726 W
            Runtime Dynamic = 0 W

      Renaming Unit:
        Area = 0.0885597 mm^2
        Peak Dynamic = 2.92993 W
        Subthreshold Leakage = 0.0187491 W
        Subthreshold Leakage with power gating = 0.009366 W
        Gate Leakage = 0.000274281 W
        Runtime Dynamic = 4.21188e-08 W

          Int Front End RAT:
            Area = 0.0277132 mm^2
            Peak Dynamic = 0.487067 W
            Subthreshold Leakage = 0.00156023 W
            Subthreshold Leakage with power gating = 0.000889329 W
            Gate Leakage = 1.20209e-05 W
            Runtime Dynamic = 0 W

          FP Front End RAT:
            Area = 0.0402703 mm^2
            Peak Dynamic = 2.26672 W
            Subthreshold Leakage = 0.0126281 W
            Subthreshold Leakage with power gating = 0.00719803 W
            Gate Leakage = 0.000171325 W
            Runtime Dynamic = 0 W

          Free List:
            Area = 0.00980768 mm^2
            Peak Dynamic = 0.0245223 W
            Subthreshold Leakage = 0.000150194 W
            Subthreshold Leakage with power gating = 7.5768e-05 W
            Gate Leakage = 1.08162e-06 W
            Runtime Dynamic = 0 W

      Load Store Unit:
        Area = 2.02906 mm^2
        Peak Dynamic = 0.882694 W
        Subthreshold Leakage = 0.150507 W
        Subthreshold Leakage with power gating = 0.0649054 W
        Gate Leakage = 0.00103703 W
        Runtime Dynamic = 4.21188e-08 W

          Data Cache:
            Area = 1.62445 mm^2
            Peak Dynamic = 0.882694 W
            Subthreshold Leakage = 0.14014 W
            Subthreshold Leakage with power gating = 0.060307 W
            Gate Leakage = 0.000901876 W
            Runtime Dynamic = 0 W

          LoadQ:
            Area = 0.0207189 mm^2
            Peak Dynamic = 0 W
            Subthreshold Leakage = 0.00252286 W
            Subthreshold Leakage with power gating = 0.00143803 W
            Gate Leakage = 1.97785e-05 W
            Runtime Dynamic = 0 W

          StoreQ:
            Area = 0.0247255 mm^2
            Peak Dynamic = 0 W
            Subthreshold Leakage = 0.0034342 W
            Subthreshold Leakage with power gating = 0.0019575 W
            Gate Leakage = 2.55214e-05 W
            Runtime Dynamic = 0 W

      Memory Management Unit:
        Area = 0.0478667 mm^2
        Peak Dynamic = 0.0758138 W
        Subthreshold Leakage = 0.010497 W
        Subthreshold Leakage with power gating = 0.00467217 W
        Gate Leakage = 0.000133538 W
        Runtime Dynamic = 4.21188e-08 W

          Itlb:
            Area = 0.0153187 mm^2
            Peak Dynamic = 0 W
            Subthreshold Leakage = 0.00236017 W
            Subthreshold Leakage with power gating = 0.0013453 W
            Gate Leakage = 1.72825e-05 W
            Runtime Dynamic = 0 W

          Dtlb:
            Area = 0.0217794 mm^2
            Peak Dynamic = 0 W
            Subthreshold Leakage = 0.00372634 W
            Subthreshold Leakage with power gating = 0.00212401 W
            Gate Leakage = 2.64018e-05 W
            Runtime Dynamic = 0 W

      Execution Unit:
        Area = 2.14962 mm^2
        Peak Dynamic = 3.36823 W
        Subthreshold Leakage = 0.277787 W
        Subthreshold Leakage with power gating = 0.0848929 W
        Gate Leakage = 0.00229396 W
        Runtime Dynamic = 0.72988 W

          Register Files:
            Area = 0.133129 mm^2
            Peak Dynamic = 0 W
            Subthreshold Leakage = 0.0028163 W
            Subthreshold Leakage with power gating = 0.000892763 W
            Gate Leakage = 2.138e-05 W
            Runtime Dynamic = 0 W

              Integer RF:
                Area = 0.0834736 mm^2
                Peak Dynamic = 0 W
                Subthreshold Leakage = 0.00172228 W
                Subthreshold Leakage with power gating = 0.000521558 W
                Gate Leakage = 1.3533e-05 W
                Runtime Dynamic = 0 W

              Floating Point RF:
                Area = 0.0496557 mm^2
                Peak Dynamic = 0 W
                Subthreshold Leakage = 0.00109402 W
                Subthreshold Leakage with power gating = 0.000371205 W
                Gate Leakage = 7.84697e-06 W
                Runtime Dynamic = 0 W

          Instruction Scheduler:
            Area = 0.53269 mm^2
            Peak Dynamic = 3.36823 W
            Subthreshold Leakage = 0.0327819 W
            Subthreshold Leakage with power gating = 0.0179486 W
            Gate Leakage = 0.000257818 W
            Runtime Dynamic = 0 W

              Instruction Window:
                Area = 0.250713 mm^2
                Peak Dynamic = 1.44458 W
                Subthreshold Leakage = 0.0233811 W
                Subthreshold Leakage with power gating = 0.0133031 W
                Gate Leakage = 0.000189603 W
                Runtime Dynamic = 0 W

              FP Instruction Window:
                Area = 0.0803106 mm^2
                Peak Dynamic = 0.848283 W
                Subthreshold Leakage = 0.00495177 W
                Subthreshold Leakage with power gating = 0.00279839 W
                Gate Leakage = 4.09447e-05 W
                Runtime Dynamic = 0 W

              ROB:
                Area = 0.201666 mm^2
                Peak Dynamic = 1.07537 W
                Subthreshold Leakage = 0.00444903 W
                Subthreshold Leakage with power gating = 0.00184714 W
                Gate Leakage = 2.72708e-05 W
                Runtime Dynamic = 0 W

          Integer ALUs (Count: 6 ):
            Area = 0.230726 mm^2
            Peak Dynamic = 0 W
            Subthreshold Leakage = 0.0781696 W
            Subthreshold Leakage with power gating = 0.021319 W
            Gate Leakage = 0.000632815 W
            Runtime Dynamic = 0.121647 W

          Floating Point Units (FPUs) (Count: 2 ):
            Area = 1.11344 mm^2
            Peak Dynamic = 0 W
            Subthreshold Leakage = 0.0943076 W
            Subthreshold Leakage with power gating = 0.0257203 W
            Gate Leakage = 0.000763458 W
            Runtime Dynamic = 0.36494 W

          Complex ALUs (Mul/Div) (Count: 1 ):
            Area = 0.115363 mm^2
            Peak Dynamic = 0 W
            Subthreshold Leakage = 0.0390848 W
            Subthreshold Leakage with power gating = 0.0106595 W
            Gate Leakage = 0.000316407 W
            Runtime Dynamic = 0.243293 W

          Results Broadcast Bus:
            Area Overhead = 0.0135028 mm^2
            Peak Dynamic = 0 W
            Subthreshold Leakage = 0.0262163 W
            Subthreshold Leakage with power gating = 0.0071499 W
            Gate Leakage = 0.000212232 W
            Runtime Dynamic = 0 W

    L2
    Area = 1.08921 mm^2
    Peak Dynamic = 0 W
    Subthreshold Leakage = 0.217129 W
    Subthreshold Leakage with power gating = 0.0858604 W
    Gate Leakage = 0.000539995 W
    Runtime Dynamic = 3.9683e-07 W

*****************************************************************************************
Core:
      Area = 8.83789 mm^2
      Peak Dynamic = 8.35527 W
      Subthreshold Leakage = 1.24068 W
      Subthreshold Leakage with power gating = 0.423947 W
      Gate Leakage = 0.00884884 W
      Runtime Dynamic = 0.72988 W

      Instruction Fetch Unit:
        Area = 1.27919 mm^2
        Peak Dynamic = 1.0986 W
        Subthreshold Leakage = 0.201057 W
        Subthreshold Leakage with power gating = 0.0747186 W
        Gate Leakage = 0.00161561 W
        Runtime Dynamic = 4.21188e-08 W

          Instruction Cache:
            Area = 0.652161 mm^2
            Peak Dynamic = 0 W
            Subthreshold Leakage = 0.0875977 W
            Subthreshold Leakage with power gating = 0.0398556 W
            Gate Leakage = 0.000896735 W
            Runtime Dynamic = 0 W

          Branch Target Buffer:
            Area = 0.153336 mm^2
            Peak Dynamic = 0.107627 W
            Subthreshold Leakage = 0.0179173 W
            Subthreshold Leakage with power gating = 0.00810978 W
            Gate Leakage = 7.44666e-05 W
            Runtime Dynamic = 0 W

          Branch Predictor:
            Area = 0.031053 mm^2
            Peak Dynamic = 0.0342172 W
            Subthreshold Leakage = 0.00458876 W
            Subthreshold Leakage with power gating = 0.00191983 W
            Gate Leakage = 2.16698e-05 W
            Runtime Dynamic = 0 W

              Global Predictor:
                Area = 0.00995681 mm^2
                Peak Dynamic = 0.00950852 W
                Subthreshold Leakage = 0.00172478 W
                Subthreshold Leakage with power gating = 0.000723306 W
                Gate Leakage = 7.8416e-06 W
                Runtime Dynamic = 0 W

              Local Predictor:
              L1_Local Predictor:
                Area = 0.00570481 mm^2
                Peak Dynamic = 0.00802062 W
                Subthreshold Leakage = 0.000876881 W
                Subthreshold Leakage with power gating = 0.000367388 W
                Gate Leakage = 4.43463e-06 W
                Runtime Dynamic = 0 W

              L2_Local Predictor:
                Area = 0.00289767 mm^2
                Peak Dynamic = 0.00398848 W
                Subthreshold Leakage = 0.00048391 W
                Subthreshold Leakage with power gating = 0.000197984 W
                Gate Leakage = 2.7078e-06 W
                Runtime Dynamic = 0 W

              Chooser:
                Area = 0.00995681 mm^2
                Peak Dynamic = 0.00950852 W
                Subthreshold Leakage = 0.00172478 W
                Subthreshold Leakage with power gating = 0.000723306 W
                Gate Leakage = 7.8416e-06 W
                Runtime Dynamic = 0 W

              RAS:
                Area = 0.00253692 mm^2
                Peak Dynamic = 0.00717956 W
                Subthreshold Leakage = 0.000262308 W
                Subthreshold Leakage with power gating = 0.000105831 W
                Gate Leakage = 1.552e-06 W
                Runtime Dynamic = 0 W

          Instruction Buffer:
            Area = 0.00457032 mm^2
            Peak Dynamic = 0.399167 W
            Subthreshold Leakage = 0.000368864 W
            Subthreshold Leakage with power gating = 0.00012853 W
            Gate Leakage = 2.16072e-06 W
            Runtime Dynamic = 0 W

          Instruction Decoder:
            Area = 0.427303 mm^2
            Peak Dynamic = 0.557586 W
            Subthreshold Leakage = 0.0861737 W
            Subthreshold Leakage with power gating = 0.0235019 W
            Gate Leakage = 0.000530726 W
            Runtime Dynamic = 0 W

      Renaming Unit:
        Area = 0.0885597 mm^2
        Peak Dynamic = 2.92993 W
        Subthreshold Leakage = 0.0187491 W
        Subthreshold Leakage with power gating = 0.009366 W
        Gate Leakage = 0.000274281 W
        Runtime Dynamic = 4.21188e-08 W

          Int Front End RAT:
            Area = 0.0277132 mm^2
            Peak Dynamic = 0.487067 W
            Subthreshold Leakage = 0.00156023 W
            Subthreshold Leakage with power gating = 0.000889329 W
            Gate Leakage = 1.20209e-05 W
            Runtime Dynamic = 0 W

          FP Front End RAT:
            Area = 0.0402703 mm^2
            Peak Dynamic = 2.26672 W
            Subthreshold Leakage = 0.0126281 W
            Subthreshold Leakage with power gating = 0.00719803 W
            Gate Leakage = 0.000171325 W
            Runtime Dynamic = 0 W

          Free List:
            Area = 0.00980768 mm^2
            Peak Dynamic = 0.0245223 W
            Subthreshold Leakage = 0.000150194 W
            Subthreshold Leakage with power gating = 7.5768e-05 W
            Gate Leakage = 1.08162e-06 W
            Runtime Dynamic = 0 W

      Load Store Unit:
        Area = 2.02906 mm^2
        Peak Dynamic = 0.882694 W
        Subthreshold Leakage = 0.150507 W
        Subthreshold Leakage with power gating = 0.0649054 W
        Gate Leakage = 0.00103703 W
        Runtime Dynamic = 4.21188e-08 W

          Data Cache:
            Area = 1.62445 mm^2
            Peak Dynamic = 0.882694 W
            Subthreshold Leakage = 0.14014 W
            Subthreshold Leakage with power gating = 0.060307 W
            Gate Leakage = 0.000901876 W
            Runtime Dynamic = 0 W

          LoadQ:
            Area = 0.0207189 mm^2
            Peak Dynamic = 0 W
            Subthreshold Leakage = 0.00252286 W
            Subthreshold Leakage with power gating = 0.00143803 W
            Gate Leakage = 1.97785e-05 W
            Runtime Dynamic = 0 W

          StoreQ:
            Area = 0.0247255 mm^2
            Peak Dynamic = 0 W
            Subthreshold Leakage = 0.0034342 W
            Subthreshold Leakage with power gating = 0.0019575 W
            Gate Leakage = 2.55214e-05 W
            Runtime Dynamic = 0 W

      Memory Management Unit:
        Area = 0.0478667 mm^2
        Peak Dynamic = 0.0758138 W
        Subthreshold Leakage = 0.010497 W
        Subthreshold Leakage with power gating = 0.00467217 W
        Gate Leakage = 0.000133538 W
        Runtime Dynamic = 4.21188e-08 W

          Itlb:
            Area = 0.0153187 mm^2
            Peak Dynamic = 0 W
            Subthreshold Leakage = 0.00236017 W
            Subthreshold Leakage with power gating = 0.0013453 W
            Gate Leakage = 1.72825e-05 W
            Runtime Dynamic = 0 W

          Dtlb:
            Area = 0.0217794 mm^2
            Peak Dynamic = 0 W
            Subthreshold Leakage = 0.00372634 W
            Subthreshold Leakage with power gating = 0.00212401 W
            Gate Leakage = 2.64018e-05 W
            Runtime Dynamic = 0 W

      Execution Unit:
        Area = 2.14962 mm^2
        Peak Dynamic = 3.36823 W
        Subthreshold Leakage = 0.277787 W
        Subthreshold Leakage with power gating = 0.0848929 W
        Gate Leakage = 0.00229396 W
        Runtime Dynamic = 0.72988 W

          Register Files:
            Area = 0.133129 mm^2
            Peak Dynamic = 0 W
            Subthreshold Leakage = 0.0028163 W
            Subthreshold Leakage with power gating = 0.000892763 W
            Gate Leakage = 2.138e-05 W
            Runtime Dynamic = 0 W

              Integer RF:
                Area = 0.0834736 mm^2
                Peak Dynamic = 0 W
                Subthreshold Leakage = 0.00172228 W
                Subthreshold Leakage with power gating = 0.000521558 W
                Gate Leakage = 1.3533e-05 W
                Runtime Dynamic = 0 W

              Floating Point RF:
                Area = 0.0496557 mm^2
                Peak Dynamic = 0 W
                Subthreshold Leakage = 0.00109402 W
                Subthreshold Leakage with power gating = 0.000371205 W
                Gate Leakage = 7.84697e-06 W
                Runtime Dynamic = 0 W

          Instruction Scheduler:
            Area = 0.53269 mm^2
            Peak Dynamic = 3.36823 W
            Subthreshold Leakage = 0.0327819 W
            Subthreshold Leakage with power gating = 0.0179486 W
            Gate Leakage = 0.000257818 W
            Runtime Dynamic = 0 W

              Instruction Window:
                Area = 0.250713 mm^2
                Peak Dynamic = 1.44458 W
                Subthreshold Leakage = 0.0233811 W
                Subthreshold Leakage with power gating = 0.0133031 W
                Gate Leakage = 0.000189603 W
                Runtime Dynamic = 0 W

              FP Instruction Window:
                Area = 0.0803106 mm^2
                Peak Dynamic = 0.848283 W
                Subthreshold Leakage = 0.00495177 W
                Subthreshold Leakage with power gating = 0.00279839 W
                Gate Leakage = 4.09447e-05 W
                Runtime Dynamic = 0 W

              ROB:
                Area = 0.201666 mm^2
                Peak Dynamic = 1.07537 W
                Subthreshold Leakage = 0.00444903 W
                Subthreshold Leakage with power gating = 0.00184714 W
                Gate Leakage = 2.72708e-05 W
                Runtime Dynamic = 0 W

          Integer ALUs (Count: 6 ):
            Area = 0.230726 mm^2
            Peak Dynamic = 0 W
            Subthreshold Leakage = 0.0781696 W
            Subthreshold Leakage with power gating = 0.021319 W
            Gate Leakage = 0.000632815 W
            Runtime Dynamic = 0.121647 W

          Floating Point Units (FPUs) (Count: 2 ):
            Area = 1.11344 mm^2
            Peak Dynamic = 0 W
            Subthreshold Leakage = 0.0943076 W
            Subthreshold Leakage with power gating = 0.0257203 W
            Gate Leakage = 0.000763458 W
            Runtime Dynamic = 0.36494 W

          Complex ALUs (Mul/Div) (Count: 1 ):
            Area = 0.115363 mm^2
            Peak Dynamic = 0 W
            Subthreshold Leakage = 0.0390848 W
            Subthreshold Leakage with power gating = 0.0106595 W
            Gate Leakage = 0.000316407 W
            Runtime Dynamic = 0.243293 W

          Results Broadcast Bus:
            Area Overhead = 0.0135028 mm^2
            Peak Dynamic = 0 W
            Subthreshold Leakage = 0.0262163 W
            Subthreshold Leakage with power gating = 0.0071499 W
            Gate Leakage = 0.000212232 W
            Runtime Dynamic = 0 W

    L2
    Area = 1.08921 mm^2
    Peak Dynamic = 0 W
    Subthreshold Leakage = 0.217129 W
    Subthreshold Leakage with power gating = 0.0858604 W
    Gate Leakage = 0.000539995 W
    Runtime Dynamic = 3.9683e-07 W

*****************************************************************************************
Core:
      Area = 8.83789 mm^2
      Peak Dynamic = 8.35527 W
      Subthreshold Leakage = 1.24068 W
      Subthreshold Leakage with power gating = 0.423947 W
      Gate Leakage = 0.00884884 W
      Runtime Dynamic = 0.72988 W

      Instruction Fetch Unit:
        Area = 1.27919 mm^2
        Peak Dynamic = 1.0986 W
        Subthreshold Leakage = 0.201057 W
        Subthreshold Leakage with power gating = 0.0747186 W
        Gate Leakage = 0.00161561 W
        Runtime Dynamic = 4.21188e-08 W

          Instruction Cache:
            Area = 0.652161 mm^2
            Peak Dynamic = 0 W
            Subthreshold Leakage = 0.0875977 W
            Subthreshold Leakage with power gating = 0.0398556 W
            Gate Leakage = 0.000896735 W
            Runtime Dynamic = 0 W

          Branch Target Buffer:
            Area = 0.153336 mm^2
            Peak Dynamic = 0.107627 W
            Subthreshold Leakage = 0.0179173 W
            Subthreshold Leakage with power gating = 0.00810978 W
            Gate Leakage = 7.44666e-05 W
            Runtime Dynamic = 0 W

          Branch Predictor:
            Area = 0.031053 mm^2
            Peak Dynamic = 0.0342172 W
            Subthreshold Leakage = 0.00458876 W
            Subthreshold Leakage with power gating = 0.00191983 W
            Gate Leakage = 2.16698e-05 W
            Runtime Dynamic = 0 W

              Global Predictor:
                Area = 0.00995681 mm^2
                Peak Dynamic = 0.00950852 W
                Subthreshold Leakage = 0.00172478 W
                Subthreshold Leakage with power gating = 0.000723306 W
                Gate Leakage = 7.8416e-06 W
                Runtime Dynamic = 0 W

              Local Predictor:
              L1_Local Predictor:
                Area = 0.00570481 mm^2
                Peak Dynamic = 0.00802062 W
                Subthreshold Leakage = 0.000876881 W
                Subthreshold Leakage with power gating = 0.000367388 W
                Gate Leakage = 4.43463e-06 W
                Runtime Dynamic = 0 W

              L2_Local Predictor:
                Area = 0.00289767 mm^2
                Peak Dynamic = 0.00398848 W
                Subthreshold Leakage = 0.00048391 W
                Subthreshold Leakage with power gating = 0.000197984 W
                Gate Leakage = 2.7078e-06 W
                Runtime Dynamic = 0 W

              Chooser:
                Area = 0.00995681 mm^2
                Peak Dynamic = 0.00950852 W
                Subthreshold Leakage = 0.00172478 W
                Subthreshold Leakage with power gating = 0.000723306 W
                Gate Leakage = 7.8416e-06 W
                Runtime Dynamic = 0 W

              RAS:
                Area = 0.00253692 mm^2
                Peak Dynamic = 0.00717956 W
                Subthreshold Leakage = 0.000262308 W
                Subthreshold Leakage with power gating = 0.000105831 W
                Gate Leakage = 1.552e-06 W
                Runtime Dynamic = 0 W

          Instruction Buffer:
            Area = 0.00457032 mm^2
            Peak Dynamic = 0.399167 W
            Subthreshold Leakage = 0.000368864 W
            Subthreshold Leakage with power gating = 0.00012853 W
            Gate Leakage = 2.16072e-06 W
            Runtime Dynamic = 0 W

          Instruction Decoder:
            Area = 0.427303 mm^2
            Peak Dynamic = 0.557586 W
            Subthreshold Leakage = 0.0861737 W
            Subthreshold Leakage with power gating = 0.0235019 W
            Gate Leakage = 0.000530726 W
            Runtime Dynamic = 0 W

      Renaming Unit:
        Area = 0.0885597 mm^2
        Peak Dynamic = 2.92993 W
        Subthreshold Leakage = 0.0187491 W
        Subthreshold Leakage with power gating = 0.009366 W
        Gate Leakage = 0.000274281 W
        Runtime Dynamic = 4.21188e-08 W

          Int Front End RAT:
            Area = 0.0277132 mm^2
            Peak Dynamic = 0.487067 W
            Subthreshold Leakage = 0.00156023 W
            Subthreshold Leakage with power gating = 0.000889329 W
            Gate Leakage = 1.20209e-05 W
            Runtime Dynamic = 0 W

          FP Front End RAT:
            Area = 0.0402703 mm^2
            Peak Dynamic = 2.26672 W
            Subthreshold Leakage = 0.0126281 W
            Subthreshold Leakage with power gating = 0.00719803 W
            Gate Leakage = 0.000171325 W
            Runtime Dynamic = 0 W

          Free List:
            Area = 0.00980768 mm^2
            Peak Dynamic = 0.0245223 W
            Subthreshold Leakage = 0.000150194 W
            Subthreshold Leakage with power gating = 7.5768e-05 W
            Gate Leakage = 1.08162e-06 W
            Runtime Dynamic = 0 W

      Load Store Unit:
        Area = 2.02906 mm^2
        Peak Dynamic = 0.882694 W
        Subthreshold Leakage = 0.150507 W
        Subthreshold Leakage with power gating = 0.0649054 W
        Gate Leakage = 0.00103703 W
        Runtime Dynamic = 4.21188e-08 W

          Data Cache:
            Area = 1.62445 mm^2
            Peak Dynamic = 0.882694 W
            Subthreshold Leakage = 0.14014 W
            Subthreshold Leakage with power gating = 0.060307 W
            Gate Leakage = 0.000901876 W
            Runtime Dynamic = 0 W

          LoadQ:
            Area = 0.0207189 mm^2
            Peak Dynamic = 0 W
            Subthreshold Leakage = 0.00252286 W
            Subthreshold Leakage with power gating = 0.00143803 W
            Gate Leakage = 1.97785e-05 W
            Runtime Dynamic = 0 W

          StoreQ:
            Area = 0.0247255 mm^2
            Peak Dynamic = 0 W
            Subthreshold Leakage = 0.0034342 W
            Subthreshold Leakage with power gating = 0.0019575 W
            Gate Leakage = 2.55214e-05 W
            Runtime Dynamic = 0 W

      Memory Management Unit:
        Area = 0.0478667 mm^2
        Peak Dynamic = 0.0758138 W
        Subthreshold Leakage = 0.010497 W
        Subthreshold Leakage with power gating = 0.00467217 W
        Gate Leakage = 0.000133538 W
        Runtime Dynamic = 4.21188e-08 W

          Itlb:
            Area = 0.0153187 mm^2
            Peak Dynamic = 0 W
            Subthreshold Leakage = 0.00236017 W
            Subthreshold Leakage with power gating = 0.0013453 W
            Gate Leakage = 1.72825e-05 W
            Runtime Dynamic = 0 W

          Dtlb:
            Area = 0.0217794 mm^2
            Peak Dynamic = 0 W
            Subthreshold Leakage = 0.00372634 W
            Subthreshold Leakage with power gating = 0.00212401 W
            Gate Leakage = 2.64018e-05 W
            Runtime Dynamic = 0 W

      Execution Unit:
        Area = 2.14962 mm^2
        Peak Dynamic = 3.36823 W
        Subthreshold Leakage = 0.277787 W
        Subthreshold Leakage with power gating = 0.0848929 W
        Gate Leakage = 0.00229396 W
        Runtime Dynamic = 0.72988 W

          Register Files:
            Area = 0.133129 mm^2
            Peak Dynamic = 0 W
            Subthreshold Leakage = 0.0028163 W
            Subthreshold Leakage with power gating = 0.000892763 W
            Gate Leakage = 2.138e-05 W
            Runtime Dynamic = 0 W

              Integer RF:
                Area = 0.0834736 mm^2
                Peak Dynamic = 0 W
                Subthreshold Leakage = 0.00172228 W
                Subthreshold Leakage with power gating = 0.000521558 W
                Gate Leakage = 1.3533e-05 W
                Runtime Dynamic = 0 W

              Floating Point RF:
                Area = 0.0496557 mm^2
                Peak Dynamic = 0 W
                Subthreshold Leakage = 0.00109402 W
                Subthreshold Leakage with power gating = 0.000371205 W
                Gate Leakage = 7.84697e-06 W
                Runtime Dynamic = 0 W

          Instruction Scheduler:
            Area = 0.53269 mm^2
            Peak Dynamic = 3.36823 W
            Subthreshold Leakage = 0.0327819 W
            Subthreshold Leakage with power gating = 0.0179486 W
            Gate Leakage = 0.000257818 W
            Runtime Dynamic = 0 W

              Instruction Window:
                Area = 0.250713 mm^2
                Peak Dynamic = 1.44458 W
                Subthreshold Leakage = 0.0233811 W
                Subthreshold Leakage with power gating = 0.0133031 W
                Gate Leakage = 0.000189603 W
                Runtime Dynamic = 0 W

              FP Instruction Window:
                Area = 0.0803106 mm^2
                Peak Dynamic = 0.848283 W
                Subthreshold Leakage = 0.00495177 W
                Subthreshold Leakage with power gating = 0.00279839 W
                Gate Leakage = 4.09447e-05 W
                Runtime Dynamic = 0 W

              ROB:
                Area = 0.201666 mm^2
                Peak Dynamic = 1.07537 W
                Subthreshold Leakage = 0.00444903 W
                Subthreshold Leakage with power gating = 0.00184714 W
                Gate Leakage = 2.72708e-05 W
                Runtime Dynamic = 0 W

          Integer ALUs (Count: 6 ):
            Area = 0.230726 mm^2
            Peak Dynamic = 0 W
            Subthreshold Leakage = 0.0781696 W
            Subthreshold Leakage with power gating = 0.021319 W
            Gate Leakage = 0.000632815 W
            Runtime Dynamic = 0.121647 W

          Floating Point Units (FPUs) (Count: 2 ):
            Area = 1.11344 mm^2
            Peak Dynamic = 0 W
            Subthreshold Leakage = 0.0943076 W
            Subthreshold Leakage with power gating = 0.0257203 W
            Gate Leakage = 0.000763458 W
            Runtime Dynamic = 0.36494 W

          Complex ALUs (Mul/Div) (Count: 1 ):
            Area = 0.115363 mm^2
            Peak Dynamic = 0 W
            Subthreshold Leakage = 0.0390848 W
            Subthreshold Leakage with power gating = 0.0106595 W
            Gate Leakage = 0.000316407 W
            Runtime Dynamic = 0.243293 W

          Results Broadcast Bus:
            Area Overhead = 0.0135028 mm^2
            Peak Dynamic = 0 W
            Subthreshold Leakage = 0.0262163 W
            Subthreshold Leakage with power gating = 0.0071499 W
            Gate Leakage = 0.000212232 W
            Runtime Dynamic = 0 W

    L2
    Area = 1.08921 mm^2
    Peak Dynamic = 0 W
    Subthreshold Leakage = 0.217129 W
    Subthreshold Leakage with power gating = 0.0858604 W
    Gate Leakage = 0.000539995 W
    Runtime Dynamic = 3.9683e-07 W

*****************************************************************************************
Core:
      Area = 8.83789 mm^2
      Peak Dynamic = 8.35527 W
      Subthreshold Leakage = 1.24068 W
      Subthreshold Leakage with power gating = 0.423947 W
      Gate Leakage = 0.00884884 W
      Runtime Dynamic = 0.72988 W

      Instruction Fetch Unit:
        Area = 1.27919 mm^2
        Peak Dynamic = 1.0986 W
        Subthreshold Leakage = 0.201057 W
        Subthreshold Leakage with power gating = 0.0747186 W
        Gate Leakage = 0.00161561 W
        Runtime Dynamic = 4.21188e-08 W

          Instruction Cache:
            Area = 0.652161 mm^2
            Peak Dynamic = 0 W
            Subthreshold Leakage = 0.0875977 W
            Subthreshold Leakage with power gating = 0.0398556 W
            Gate Leakage = 0.000896735 W
            Runtime Dynamic = 0 W

          Branch Target Buffer:
            Area = 0.153336 mm^2
            Peak Dynamic = 0.107627 W
            Subthreshold Leakage = 0.0179173 W
            Subthreshold Leakage with power gating = 0.00810978 W
            Gate Leakage = 7.44666e-05 W
            Runtime Dynamic = 0 W

          Branch Predictor:
            Area = 0.031053 mm^2
            Peak Dynamic = 0.0342172 W
            Subthreshold Leakage = 0.00458876 W
            Subthreshold Leakage with power gating = 0.00191983 W
            Gate Leakage = 2.16698e-05 W
            Runtime Dynamic = 0 W

              Global Predictor:
                Area = 0.00995681 mm^2
                Peak Dynamic = 0.00950852 W
                Subthreshold Leakage = 0.00172478 W
                Subthreshold Leakage with power gating = 0.000723306 W
                Gate Leakage = 7.8416e-06 W
                Runtime Dynamic = 0 W

              Local Predictor:
              L1_Local Predictor:
                Area = 0.00570481 mm^2
                Peak Dynamic = 0.00802062 W
                Subthreshold Leakage = 0.000876881 W
                Subthreshold Leakage with power gating = 0.000367388 W
                Gate Leakage = 4.43463e-06 W
                Runtime Dynamic = 0 W

              L2_Local Predictor:
                Area = 0.00289767 mm^2
                Peak Dynamic = 0.00398848 W
                Subthreshold Leakage = 0.00048391 W
                Subthreshold Leakage with power gating = 0.000197984 W
                Gate Leakage = 2.7078e-06 W
                Runtime Dynamic = 0 W

              Chooser:
                Area = 0.00995681 mm^2
                Peak Dynamic = 0.00950852 W
                Subthreshold Leakage = 0.00172478 W
                Subthreshold Leakage with power gating = 0.000723306 W
                Gate Leakage = 7.8416e-06 W
                Runtime Dynamic = 0 W

              RAS:
                Area = 0.00253692 mm^2
                Peak Dynamic = 0.00717956 W
                Subthreshold Leakage = 0.000262308 W
                Subthreshold Leakage with power gating = 0.000105831 W
                Gate Leakage = 1.552e-06 W
                Runtime Dynamic = 0 W

          Instruction Buffer:
            Area = 0.00457032 mm^2
            Peak Dynamic = 0.399167 W
            Subthreshold Leakage = 0.000368864 W
            Subthreshold Leakage with power gating = 0.00012853 W
            Gate Leakage = 2.16072e-06 W
            Runtime Dynamic = 0 W

          Instruction Decoder:
            Area = 0.427303 mm^2
            Peak Dynamic = 0.557586 W
            Subthreshold Leakage = 0.0861737 W
            Subthreshold Leakage with power gating = 0.0235019 W
            Gate Leakage = 0.000530726 W
            Runtime Dynamic = 0 W

      Renaming Unit:
        Area = 0.0885597 mm^2
        Peak Dynamic = 2.92993 W
        Subthreshold Leakage = 0.0187491 W
        Subthreshold Leakage with power gating = 0.009366 W
        Gate Leakage = 0.000274281 W
        Runtime Dynamic = 4.21188e-08 W

          Int Front End RAT:
            Area = 0.0277132 mm^2
            Peak Dynamic = 0.487067 W
            Subthreshold Leakage = 0.00156023 W
            Subthreshold Leakage with power gating = 0.000889329 W
            Gate Leakage = 1.20209e-05 W
            Runtime Dynamic = 0 W

          FP Front End RAT:
            Area = 0.0402703 mm^2
            Peak Dynamic = 2.26672 W
            Subthreshold Leakage = 0.0126281 W
            Subthreshold Leakage with power gating = 0.00719803 W
            Gate Leakage = 0.000171325 W
            Runtime Dynamic = 0 W

          Free List:
            Area = 0.00980768 mm^2
            Peak Dynamic = 0.0245223 W
            Subthreshold Leakage = 0.000150194 W
            Subthreshold Leakage with power gating = 7.5768e-05 W
            Gate Leakage = 1.08162e-06 W
            Runtime Dynamic = 0 W

      Load Store Unit:
        Area = 2.02906 mm^2
        Peak Dynamic = 0.882694 W
        Subthreshold Leakage = 0.150507 W
        Subthreshold Leakage with power gating = 0.0649054 W
        Gate Leakage = 0.00103703 W
        Runtime Dynamic = 4.21188e-08 W

          Data Cache:
            Area = 1.62445 mm^2
            Peak Dynamic = 0.882694 W
            Subthreshold Leakage = 0.14014 W
            Subthreshold Leakage with power gating = 0.060307 W
            Gate Leakage = 0.000901876 W
            Runtime Dynamic = 0 W

          LoadQ:
            Area = 0.0207189 mm^2
            Peak Dynamic = 0 W
            Subthreshold Leakage = 0.00252286 W
            Subthreshold Leakage with power gating = 0.00143803 W
            Gate Leakage = 1.97785e-05 W
            Runtime Dynamic = 0 W

          StoreQ:
            Area = 0.0247255 mm^2
            Peak Dynamic = 0 W
            Subthreshold Leakage = 0.0034342 W
            Subthreshold Leakage with power gating = 0.0019575 W
            Gate Leakage = 2.55214e-05 W
            Runtime Dynamic = 0 W

      Memory Management Unit:
        Area = 0.0478667 mm^2
        Peak Dynamic = 0.0758138 W
        Subthreshold Leakage = 0.010497 W
        Subthreshold Leakage with power gating = 0.00467217 W
        Gate Leakage = 0.000133538 W
        Runtime Dynamic = 4.21188e-08 W

          Itlb:
            Area = 0.0153187 mm^2
            Peak Dynamic = 0 W
            Subthreshold Leakage = 0.00236017 W
            Subthreshold Leakage with power gating = 0.0013453 W
            Gate Leakage = 1.72825e-05 W
            Runtime Dynamic = 0 W

          Dtlb:
            Area = 0.0217794 mm^2
            Peak Dynamic = 0 W
            Subthreshold Leakage = 0.00372634 W
            Subthreshold Leakage with power gating = 0.00212401 W
            Gate Leakage = 2.64018e-05 W
            Runtime Dynamic = 0 W

      Execution Unit:
        Area = 2.14962 mm^2
        Peak Dynamic = 3.36823 W
        Subthreshold Leakage = 0.277787 W
        Subthreshold Leakage with power gating = 0.0848929 W
        Gate Leakage = 0.00229396 W
        Runtime Dynamic = 0.72988 W

          Register Files:
            Area = 0.133129 mm^2
            Peak Dynamic = 0 W
            Subthreshold Leakage = 0.0028163 W
            Subthreshold Leakage with power gating = 0.000892763 W
            Gate Leakage = 2.138e-05 W
            Runtime Dynamic = 0 W

              Integer RF:
                Area = 0.0834736 mm^2
                Peak Dynamic = 0 W
                Subthreshold Leakage = 0.00172228 W
                Subthreshold Leakage with power gating = 0.000521558 W
                Gate Leakage = 1.3533e-05 W
                Runtime Dynamic = 0 W

              Floating Point RF:
                Area = 0.0496557 mm^2
                Peak Dynamic = 0 W
                Subthreshold Leakage = 0.00109402 W
                Subthreshold Leakage with power gating = 0.000371205 W
                Gate Leakage = 7.84697e-06 W
                Runtime Dynamic = 0 W

          Instruction Scheduler:
            Area = 0.53269 mm^2
            Peak Dynamic = 3.36823 W
            Subthreshold Leakage = 0.0327819 W
            Subthreshold Leakage with power gating = 0.0179486 W
            Gate Leakage = 0.000257818 W
            Runtime Dynamic = 0 W

              Instruction Window:
                Area = 0.250713 mm^2
                Peak Dynamic = 1.44458 W
                Subthreshold Leakage = 0.0233811 W
                Subthreshold Leakage with power gating = 0.0133031 W
                Gate Leakage = 0.000189603 W
                Runtime Dynamic = 0 W

              FP Instruction Window:
                Area = 0.0803106 mm^2
                Peak Dynamic = 0.848283 W
                Subthreshold Leakage = 0.00495177 W
                Subthreshold Leakage with power gating = 0.00279839 W
                Gate Leakage = 4.09447e-05 W
                Runtime Dynamic = 0 W

              ROB:
                Area = 0.201666 mm^2
                Peak Dynamic = 1.07537 W
                Subthreshold Leakage = 0.00444903 W
                Subthreshold Leakage with power gating = 0.00184714 W
                Gate Leakage = 2.72708e-05 W
                Runtime Dynamic = 0 W

          Integer ALUs (Count: 6 ):
            Area = 0.230726 mm^2
            Peak Dynamic = 0 W
            Subthreshold Leakage = 0.0781696 W
            Subthreshold Leakage with power gating = 0.021319 W
            Gate Leakage = 0.000632815 W
            Runtime Dynamic = 0.121647 W

          Floating Point Units (FPUs) (Count: 2 ):
            Area = 1.11344 mm^2
            Peak Dynamic = 0 W
            Subthreshold Leakage = 0.0943076 W
            Subthreshold Leakage with power gating = 0.0257203 W
            Gate Leakage = 0.000763458 W
            Runtime Dynamic = 0.36494 W

          Complex ALUs (Mul/Div) (Count: 1 ):
            Area = 0.115363 mm^2
            Peak Dynamic = 0 W
            Subthreshold Leakage = 0.0390848 W
            Subthreshold Leakage with power gating = 0.0106595 W
            Gate Leakage = 0.000316407 W
            Runtime Dynamic = 0.243293 W

          Results Broadcast Bus:
            Area Overhead = 0.0135028 mm^2
            Peak Dynamic = 0 W
            Subthreshold Leakage = 0.0262163 W
            Subthreshold Leakage with power gating = 0.0071499 W
            Gate Leakage = 0.000212232 W
            Runtime Dynamic = 0 W

    L2
    Area = 1.08921 mm^2
    Peak Dynamic = 0 W
    Subthreshold Leakage = 0.217129 W
    Subthreshold Leakage with power gating = 0.0858604 W
    Gate Leakage = 0.000539995 W
    Runtime Dynamic = 3.9683e-07 W

*****************************************************************************************
Core:
      Area = 8.83789 mm^2
      Peak Dynamic = 8.35527 W
      Subthreshold Leakage = 1.24068 W
      Subthreshold Leakage with power gating = 0.423947 W
      Gate Leakage = 0.00884884 W
      Runtime Dynamic = 0.72988 W

      Instruction Fetch Unit:
        Area = 1.27919 mm^2
        Peak Dynamic = 1.0986 W
        Subthreshold Leakage = 0.201057 W
        Subthreshold Leakage with power gating = 0.0747186 W
        Gate Leakage = 0.00161561 W
        Runtime Dynamic = 4.21188e-08 W

          Instruction Cache:
            Area = 0.652161 mm^2
            Peak Dynamic = 0 W
            Subthreshold Leakage = 0.0875977 W
            Subthreshold Leakage with power gating = 0.0398556 W
            Gate Leakage = 0.000896735 W
            Runtime Dynamic = 0 W

          Branch Target Buffer:
            Area = 0.153336 mm^2
            Peak Dynamic = 0.107627 W
            Subthreshold Leakage = 0.0179173 W
            Subthreshold Leakage with power gating = 0.00810978 W
            Gate Leakage = 7.44666e-05 W
            Runtime Dynamic = 0 W

          Branch Predictor:
            Area = 0.031053 mm^2
            Peak Dynamic = 0.0342172 W
            Subthreshold Leakage = 0.00458876 W
            Subthreshold Leakage with power gating = 0.00191983 W
            Gate Leakage = 2.16698e-05 W
            Runtime Dynamic = 0 W

              Global Predictor:
                Area = 0.00995681 mm^2
                Peak Dynamic = 0.00950852 W
                Subthreshold Leakage = 0.00172478 W
                Subthreshold Leakage with power gating = 0.000723306 W
                Gate Leakage = 7.8416e-06 W
                Runtime Dynamic = 0 W

              Local Predictor:
              L1_Local Predictor:
                Area = 0.00570481 mm^2
                Peak Dynamic = 0.00802062 W
                Subthreshold Leakage = 0.000876881 W
                Subthreshold Leakage with power gating = 0.000367388 W
                Gate Leakage = 4.43463e-06 W
                Runtime Dynamic = 0 W

              L2_Local Predictor:
                Area = 0.00289767 mm^2
                Peak Dynamic = 0.00398848 W
                Subthreshold Leakage = 0.00048391 W
                Subthreshold Leakage with power gating = 0.000197984 W
                Gate Leakage = 2.7078e-06 W
                Runtime Dynamic = 0 W

              Chooser:
                Area = 0.00995681 mm^2
                Peak Dynamic = 0.00950852 W
                Subthreshold Leakage = 0.00172478 W
                Subthreshold Leakage with power gating = 0.000723306 W
                Gate Leakage = 7.8416e-06 W
                Runtime Dynamic = 0 W

              RAS:
                Area = 0.00253692 mm^2
                Peak Dynamic = 0.00717956 W
                Subthreshold Leakage = 0.000262308 W
                Subthreshold Leakage with power gating = 0.000105831 W
                Gate Leakage = 1.552e-06 W
                Runtime Dynamic = 0 W

          Instruction Buffer:
            Area = 0.00457032 mm^2
            Peak Dynamic = 0.399167 W
            Subthreshold Leakage = 0.000368864 W
            Subthreshold Leakage with power gating = 0.00012853 W
            Gate Leakage = 2.16072e-06 W
            Runtime Dynamic = 0 W

          Instruction Decoder:
            Area = 0.427303 mm^2
            Peak Dynamic = 0.557586 W
            Subthreshold Leakage = 0.0861737 W
            Subthreshold Leakage with power gating = 0.0235019 W
            Gate Leakage = 0.000530726 W
            Runtime Dynamic = 0 W

      Renaming Unit:
        Area = 0.0885597 mm^2
        Peak Dynamic = 2.92993 W
        Subthreshold Leakage = 0.0187491 W
        Subthreshold Leakage with power gating = 0.009366 W
        Gate Leakage = 0.000274281 W
        Runtime Dynamic = 4.21188e-08 W

          Int Front End RAT:
            Area = 0.0277132 mm^2
            Peak Dynamic = 0.487067 W
            Subthreshold Leakage = 0.00156023 W
            Subthreshold Leakage with power gating = 0.000889329 W
            Gate Leakage = 1.20209e-05 W
            Runtime Dynamic = 0 W

          FP Front End RAT:
            Area = 0.0402703 mm^2
            Peak Dynamic = 2.26672 W
            Subthreshold Leakage = 0.0126281 W
            Subthreshold Leakage with power gating = 0.00719803 W
            Gate Leakage = 0.000171325 W
            Runtime Dynamic = 0 W

          Free List:
            Area = 0.00980768 mm^2
            Peak Dynamic = 0.0245223 W
[...]
        Subthreshold Leakage with power gating = 0.0848929 W
        Gate Leakage = 0.00229396 W
        Runtime Dynamic = 0.72988 W

          Register Files:
            Area = 0.133129 mm^2
            Peak Dynamic = 0 W
            Subthreshold Leakage = 0.0028163 W
            Subthreshold Leakage with power gating = 0.000892763 W
            Gate Leakage = 2.138e-05 W
            Runtime Dynamic = 0 W

              Integer RF:
                Area = 0.0834736 mm^2
                Peak Dynamic = 0 W
                Subthreshold Leakage = 0.00172228 W
                Subthreshold Leakage with power gating = 0.000521558 W
                Gate Leakage = 1.3533e-05 W
                Runtime Dynamic = 0 W

              Floating Point RF:
                Area = 0.0496557 mm^2
                Peak Dynamic = 0 W
                Subthreshold Leakage = 0.00109402 W
                Subthreshold Leakage with power gating = 0.000371205 W
                Gate Leakage = 7.84697e-06 W
                Runtime Dynamic = 0 W

          Instruction Scheduler:
            Area = 0.53269 mm^2
            Peak Dynamic = 3.36823 W
            Subthreshold Leakage = 0.0327819 W
            Subthreshold Leakage with power gating = 0.0179486 W
            Gate Leakage = 0.000257818 W
            Runtime Dynamic = 0 W

              Instruction Window:
                Area = 0.250713 mm^2
                Peak Dynamic = 1.44458 W
                Subthreshold Leakage = 0.0233811 W
                Subthreshold Leakage with power gating = 0.0133031 W
                Gate Leakage = 0.000189603 W
                Runtime Dynamic = 0 W

              FP Instruction Window:
                Area = 0.0803106 mm^2
                Peak Dynamic = 0.848283 W
                Subthreshold Leakage = 0.00495177 W
                Subthreshold Leakage with power gating = 0.00279839 W
                Gate Leakage = 4.09447e-05 W
                Runtime Dynamic = 0 W

              ROB:
                Area = 0.201666 mm^2
                Peak Dynamic = 1.07537 W
                Subthreshold Leakage = 0.00444903 W
                Subthreshold Leakage with power gating = 0.00184714 W
                Gate Leakage = 2.72708e-05 W
                Runtime Dynamic = 0 W

          Integer ALUs (Count: 6 ):
            Area = 0.230726 mm^2
            Peak Dynamic = 0 W
            Subthreshold Leakage = 0.0781696 W
            Subthreshold Leakage with power gating = 0.021319 W
            Gate Leakage = 0.000632815 W
            Runtime Dynamic = 0.121647 W

          Floating Point Units (FPUs) (Count: 2 ):
            Area = 1.11344 mm^2
            Peak Dynamic = 0 W
            Subthreshold Leakage = 0.0943076 W
            Subthreshold Leakage with power gating = 0.0257203 W
            Gate Leakage = 0.000763458 W
            Runtime Dynamic = 0.36494 W

          Complex ALUs (Mul/Div) (Count: 1 ):
            Area = 0.115363 mm^2
            Peak Dynamic = 0 W
            Subthreshold Leakage = 0.0390848 W
            Subthreshold Leakage with power gating = 0.0106595 W
            Gate Leakage = 0.000316407 W
            Runtime Dynamic = 0.243293 W

          Results Broadcast Bus:
            Area Overhead = 0.0135028 mm^2
            Peak Dynamic = 0 W
            Subthreshold Leakage = 0.0262163 W
            Subthreshold Leakage with power gating = 0.0071499 W
            Gate Leakage = 0.000212232 W
            Runtime Dynamic = 0 W

    L2
    Area = 1.08921 mm^2
    Peak Dynamic = 0 W
    Subthreshold Leakage = 0.217129 W
    Subthreshold Leakage with power gating = 0.0858604 W
    Gate Leakage = 0.000539995 W
    Runtime Dynamic = 3.9683e-07 W

*****************************************************************************************
Core:
      Area = 8.83789 mm^2
      Peak Dynamic = 8.35527 W
      Subthreshold Leakage = 1.24068 W
      Subthreshold Leakage with power gating = 0.423947 W
      Gate Leakage = 0.00884884 W
      Runtime Dynamic = 0.72988 W

      Instruction Fetch Unit:
        Area = 1.27919 mm^2
        Peak Dynamic = 1.0986 W
        Subthreshold Leakage = 0.201057 W
        Subthreshold Leakage with power gating = 0.0747186 W
        Gate Leakage = 0.00161561 W
        Runtime Dynamic = 4.21188e-08 W

          Instruction Cache:
            Area = 0.652161 mm^2
            Peak Dynamic = 0 W
            Subthreshold Leakage = 0.0875977 W
            Subthreshold Leakage with power gating = 0.0398556 W
            Gate Leakage = 0.000896735 W
            Runtime Dynamic = 0 W

          Branch Target Buffer:
            Area = 0.153336 mm^2
            Peak Dynamic = 0.107627 W
            Subthreshold Leakage = 0.0179173 W
            Subthreshold Leakage with power gating = 0.00810978 W
            Gate Leakage = 7.44666e-05 W
            Runtime Dynamic = 0 W

          Branch Predictor:
            Area = 0.031053 mm^2
            Peak Dynamic = 0.0342172 W
            Subthreshold Leakage = 0.00458876 W
            Subthreshold Leakage with power gating = 0.00191983 W
            Gate Leakage = 2.16698e-05 W
            Runtime Dynamic = 0 W

              Global Predictor:
                Area = 0.00995681 mm^2
                Peak Dynamic = 0.00950852 W
                Subthreshold Leakage = 0.00172478 W
                Subthreshold Leakage with power gating = 0.000723306 W
                Gate Leakage = 7.8416e-06 W
                Runtime Dynamic = 0 W

              Local Predictor:
              L1_Local Predictor:
                Area = 0.00570481 mm^2
                Peak Dynamic = 0.00802062 W
                Subthreshold Leakage = 0.000876881 W
                Subthreshold Leakage with power gating = 0.000367388 W
                Gate Leakage = 4.43463e-06 W
                Runtime Dynamic = 0 W

              L2_Local Predictor:
                Area = 0.00289767 mm^2
                Peak Dynamic = 0.00398848 W
                Subthreshold Leakage = 0.00048391 W
                Subthreshold Leakage with power gating = 0.000197984 W
                Gate Leakage = 2.7078e-06 W
                Runtime Dynamic = 0 W

              Chooser:
                Area = 0.00995681 mm^2
                Peak Dynamic = 0.00950852 W
                Subthreshold Leakage = 0.00172478 W
                Subthreshold Leakage with power gating = 0.000723306 W
                Gate Leakage = 7.8416e-06 W
                Runtime Dynamic = 0 W

              RAS:
                Area = 0.00253692 mm^2
                Peak Dynamic = 0.00717956 W
                Subthreshold Leakage = 0.000262308 W
                Subthreshold Leakage with power gating = 0.000105831 W
                Gate Leakage = 1.552e-06 W
                Runtime Dynamic = 0 W

          Instruction Buffer:
            Area = 0.00457032 mm^2
            Peak Dynamic = 0.399167 W
            Subthreshold Leakage = 0.000368864 W
            Subthreshold Leakage with power gating = 0.00012853 W
            Gate Leakage = 2.16072e-06 W
            Runtime Dynamic = 0 W

          Instruction Decoder:
            Area = 0.427303 mm^2
            Peak Dynamic = 0.557586 W
            Subthreshold Leakage = 0.0861737 W
            Subthreshold Leakage with power gating = 0.0235019 W
            Gate Leakage = 0.000530726 W
            Runtime Dynamic = 0 W

      Renaming Unit:
        Area = 0.0885597 mm^2
        Peak Dynamic = 2.92993 W
        Subthreshold Leakage = 0.0187491 W
        Subthreshold Leakage with power gating = 0.009366 W
        Gate Leakage = 0.000274281 W
        Runtime Dynamic = 4.21188e-08 W

          Int Front End RAT:
            Area = 0.0277132 mm^2
            Peak Dynamic = 0.487067 W
            Subthreshold Leakage = 0.00156023 W
            Subthreshold Leakage with power gating = 0.000889329 W
            Gate Leakage = 1.20209e-05 W
            Runtime Dynamic = 0 W

          FP Front End RAT:
            Area = 0.0402703 mm^2
            Peak Dynamic = 2.26672 W
            Subthreshold Leakage = 0.0126281 W
            Subthreshold Leakage with power gating = 0.00719803 W
            Gate Leakage = 0.000171325 W
            Runtime Dynamic = 0 W

          Free List:
            Area = 0.00980768 mm^2
            Peak Dynamic = 0.0245223 W
            Subthreshold Leakage = 0.000150194 W
            Subthreshold Leakage with power gating = 7.5768e-05 W
            Gate Leakage = 1.08162e-06 W
            Runtime Dynamic = 0 W

      Load Store Unit:
        Area = 2.02906 mm^2
        Peak Dynamic = 0.882694 W
        Subthreshold Leakage = 0.150507 W
        Subthreshold Leakage with power gating = 0.0649054 W
        Gate Leakage = 0.00103703 W
        Runtime Dynamic = 4.21188e-08 W

          Data Cache:
            Area = 1.62445 mm^2
            Peak Dynamic = 0.882694 W
            Subthreshold Leakage = 0.14014 W
            Subthreshold Leakage with power gating = 0.060307 W
            Gate Leakage = 0.000901876 W
            Runtime Dynamic = 0 W

          LoadQ:
            Area = 0.0207189 mm^2
            Peak Dynamic = 0 W
            Subthreshold Leakage = 0.00252286 W
            Subthreshold Leakage with power gating = 0.00143803 W
            Gate Leakage = 1.97785e-05 W
            Runtime Dynamic = 0 W

          StoreQ:
            Area = 0.0247255 mm^2
            Peak Dynamic = 0 W
            Subthreshold Leakage = 0.0034342 W
            Subthreshold Leakage with power gating = 0.0019575 W
            Gate Leakage = 2.55214e-05 W
            Runtime Dynamic = 0 W

      Memory Management Unit:
        Area = 0.0478667 mm^2
        Peak Dynamic = 0.0758138 W
        Subthreshold Leakage = 0.010497 W
        Subthreshold Leakage with power gating = 0.00467217 W
        Gate Leakage = 0.000133538 W
        Runtime Dynamic = 4.21188e-08 W

          Itlb:
            Area = 0.0153187 mm^2
            Peak Dynamic = 0 W
            Subthreshold Leakage = 0.00236017 W
            Subthreshold Leakage with power gating = 0.0013453 W
            Gate Leakage = 1.72825e-05 W
            Runtime Dynamic = 0 W

          Dtlb:
            Area = 0.0217794 mm^2
            Peak Dynamic = 0 W
            Subthreshold Leakage = 0.00372634 W
            Subthreshold Leakage with power gating = 0.00212401 W
            Gate Leakage = 2.64018e-05 W
            Runtime Dynamic = 0 W

      Execution Unit:
        Area = 2.14962 mm^2
        Peak Dynamic = 3.36823 W
        Subthreshold Leakage = 0.277787 W
        Subthreshold Leakage with power gating = 0.0848929 W
        Gate Leakage = 0.00229396 W
        Runtime Dynamic = 0.72988 W

          Register Files:
            Area = 0.133129 mm^2
            Peak Dynamic = 0 W
            Subthreshold Leakage = 0.0028163 W
            Subthreshold Leakage with power gating = 0.000892763 W
            Gate Leakage = 2.138e-05 W
            Runtime Dynamic = 0 W

              Integer RF:
                Area = 0.0834736 mm^2
                Peak Dynamic = 0 W
                Subthreshold Leakage = 0.00172228 W
                Subthreshold Leakage with power gating = 0.000521558 W
                Gate Leakage = 1.3533e-05 W
                Runtime Dynamic = 0 W

              Floating Point RF:
                Area = 0.0496557 mm^2
                Peak Dynamic = 0 W
                Subthreshold Leakage = 0.00109402 W
                Subthreshold Leakage with power gating = 0.000371205 W
                Gate Leakage = 7.84697e-06 W
                Runtime Dynamic = 0 W

          Instruction Scheduler:
            Area = 0.53269 mm^2
            Peak Dynamic = 3.36823 W
            Subthreshold Leakage = 0.0327819 W
            Subthreshold Leakage with power gating = 0.0179486 W
            Gate Leakage = 0.000257818 W
            Runtime Dynamic = 0 W

              Instruction Window:
                Area = 0.250713 mm^2
                Peak Dynamic = 1.44458 W
                Subthreshold Leakage = 0.0233811 W
                Subthreshold Leakage with power gating = 0.0133031 W
                Gate Leakage = 0.000189603 W
                Runtime Dynamic = 0 W

              FP Instruction Window:
                Area = 0.0803106 mm^2
                Peak Dynamic = 0.848283 W
                Subthreshold Leakage = 0.00495177 W
                Subthreshold Leakage with power gating = 0.00279839 W
                Gate Leakage = 4.09447e-05 W
                Runtime Dynamic = 0 W

              ROB:
                Area = 0.201666 mm^2
                Peak Dynamic = 1.07537 W
                Subthreshold Leakage = 0.00444903 W
                Subthreshold Leakage with power gating = 0.00184714 W
                Gate Leakage = 2.72708e-05 W
                Runtime Dynamic = 0 W

          Integer ALUs (Count: 6 ):
            Area = 0.230726 mm^2
            Peak Dynamic = 0 W
            Subthreshold Leakage = 0.0781696 W
            Subthreshold Leakage with power gating = 0.021319 W
            Gate Leakage = 0.000632815 W
            Runtime Dynamic = 0.121647 W

          Floating Point Units (FPUs) (Count: 2 ):
            Area = 1.11344 mm^2
            Peak Dynamic = 0 W
            Subthreshold Leakage = 0.0943076 W
            Subthreshold Leakage with power gating = 0.0257203 W
            Gate Leakage = 0.000763458 W
            Runtime Dynamic = 0.36494 W

          Complex ALUs (Mul/Div) (Count: 1 ):
            Area = 0.115363 mm^2
            Peak Dynamic = 0 W
            Subthreshold Leakage = 0.0390848 W
            Subthreshold Leakage with power gating = 0.0106595 W
            Gate Leakage = 0.000316407 W
            Runtime Dynamic = 0.243293 W

          Results Broadcast Bus:
            Area Overhead = 0.0135028 mm^2
            Peak Dynamic = 0 W
            Subthreshold Leakage = 0.0262163 W
            Subthreshold Leakage with power gating = 0.0071499 W
            Gate Leakage = 0.000212232 W
            Runtime Dynamic = 0 W

    L2
    Area = 1.08921 mm^2
    Peak Dynamic = 0 W
    Subthreshold Leakage = 0.217129 W
    Subthreshold Leakage with power gating = 0.0858604 W
    Gate Leakage = 0.000539995 W
    Runtime Dynamic = 3.9683e-07 W

*****************************************************************************************
      L3
      Area = 2.94176 mm^2
      Peak Dynamic = 0.000870839 W
      Subthreshold Leakage = 0.28165 W
      Subthreshold Leakage with power gating = 0.109476 W
      Gate Leakage = 0.000625116 W
      Runtime Dynamic = 5.12584e-05 W

*****************************************************************************************
      L3
      Area = 2.94176 mm^2
      Peak Dynamic = 0 W
      Subthreshold Leakage = 0.28165 W
      Subthreshold Leakage with power gating = 0.109476 W
      Gate Leakage = 0.000625116 W
      Runtime Dynamic = 3.30925e-07 W

*****************************************************************************************
      L3
      Area = 2.94176 mm^2
      Peak Dynamic = 0 W
      Subthreshold Leakage = 0.28165 W
      Subthreshold Leakage with power gating = 0.109476 W
      Gate Leakage = 0.000625116 W
      Runtime Dynamic = 3.30925e-07 W

*****************************************************************************************
      L3
      Area = 2.94176 mm^2
      Peak Dynamic = 0 W
      Subthreshold Leakage = 0.28165 W
      Subthreshold Leakage with power gating = 0.109476 W
      Gate Leakage = 0.000625116 W
      Runtime Dynamic = 3.30925e-07 W

*****************************************************************************************
      L3
      Area = 2.94176 mm^2
      Peak Dynamic = 0 W
      Subthreshold Leakage = 0.28165 W
      Subthreshold Leakage with power gating = 0.109476 W
      Gate Leakage = 0.000625116 W
      Runtime Dynamic = 3.30925e-07 W

*****************************************************************************************
      L3
      Area = 2.94176 mm^2
      Peak Dynamic = 0 W
      Subthreshold Leakage = 0.28165 W
      Subthreshold Leakage with power gating = 0.109476 W
      Gate Leakage = 0.000625116 W
      Runtime Dynamic = 3.30925e-07 W

*****************************************************************************************
      L3
      Area = 2.94176 mm^2
      Peak Dynamic = 0 W
      Subthreshold Leakage = 0.28165 W
      Subthreshold Leakage with power gating = 0.109476 W
      Gate Leakage = 0.000625116 W
      Runtime Dynamic = 3.30925e-07 W

*****************************************************************************************
      L3
      Area = 2.94176 mm^2
      Peak Dynamic = 0 W
      Subthreshold Leakage = 0.28165 W
      Subthreshold Leakage with power gating = 0.109476 W
      Gate Leakage = 0.000625116 W
      Runtime Dynamic = 3.30925e-07 W

*****************************************************************************************
      L3
      Area = 2.94176 mm^2
      Peak Dynamic = 0 W
      Subthreshold Leakage = 0.28165 W
      Subthreshold Leakage with power gating = 0.109476 W
      Gate Leakage = 0.000625116 W
      Runtime Dynamic = 3.30925e-07 W

*****************************************************************************************
      L3
      Area = 2.94176 mm^2
      Peak Dynamic = 0 W
      Subthreshold Leakage = 0.28165 W
      Subthreshold Leakage with power gating = 0.109476 W
      Gate Leakage = 0.000625116 W
      Runtime Dynamic = 3.30925e-07 W

*****************************************************************************************
      L3
      Area = 2.94176 mm^2
      Peak Dynamic = 0 W
      Subthreshold Leakage = 0.28165 W
      Subthreshold Leakage with power gating = 0.109476 W
      Gate Leakage = 0.000625116 W
      Runtime Dynamic = 3.30925e-07 W

*****************************************************************************************
      L3
      Area = 2.94176 mm^2
      Peak Dynamic = 0 W
      Subthreshold Leakage = 0.28165 W
      Subthreshold Leakage with power gating = 0.109476 W
      Gate Leakage = 0.000625116 W
      Runtime Dynamic = 3.30925e-07 W

*****************************************************************************************
      L3
      Area = 2.94176 mm^2
      Peak Dynamic = 0 W
      Subthreshold Leakage = 0.28165 W
      Subthreshold Leakage with power gating = 0.109476 W
      Gate Leakage = 0.000625116 W
      Runtime Dynamic = 3.30925e-07 W

*****************************************************************************************
      L3
      Area = 2.94176 mm^2
      Peak Dynamic = 0 W
      Subthreshold Leakage = 0.28165 W
      Subthreshold Leakage with power gating = 0.109476 W
      Gate Leakage = 0.000625116 W
      Runtime Dynamic = 3.30925e-07 W

*****************************************************************************************
      L3
      Area = 2.94176 mm^2
      Peak Dynamic = 0 W
      Subthreshold Leakage = 0.28165 W
      Subthreshold Leakage with power gating = 0.109476 W
      Gate Leakage = 0.000625116 W
      Runtime Dynamic = 3.30925e-07 W

*****************************************************************************************
      L3
      Area = 2.94176 mm^2
      Peak Dynamic = 0 W
      Subthreshold Leakage = 0.28165 W
      Subthreshold Leakage with power gating = 0.109476 W
      Gate Leakage = 0.000625116 W
      Runtime Dynamic = 3.30925e-07 W

*****************************************************************************************
BUSES
      Area = 1.69427 mm^2
      Peak Dynamic = 0 W
      Subthreshold Leakage = 0.0488532 W
      Subthreshold Leakage with power gating = 0.014656 W
      Gate Leakage = 0.000679296 W
      Runtime Dynamic = 0 W

      Bus: 
        Area = 1.69427 mm^2
        Peak Dynamic = 0 W
        Subthreshold Leakage = 0.0488532 W
        Subthreshold Leakage with power gating = 0.014656 W
        Gate Leakage = 0.000679296 W
        Runtime Dynamic = 0 W

*****************************************************************************************
