McPAT (version 1.0 of Aug, 2013) is computing the target processor...
 

McPAT (version 1.0 of Aug, 2013) results  (current print level is 5)
*****************************************************************************************
  Technology 22 nm
  Using Long Channel Devices When Appropriate
  Interconnect metal projection= aggressive interconnect technology projection
  Core clock Rate(MHz) 3600

*****************************************************************************************
Processor: 
  Area = 331.575 mm^2
  Peak Power = 364.221 W
  Total Leakage = 44.5507 W
  Peak Dynamic = 319.67 W
  Subthreshold Leakage = 44.2569 W
  Subthreshold Leakage with power gating = 15.5045 W
  Gate Leakage = 0.293844 W
  Runtime Dynamic = 52.1379 W

  Total Cores: 32 cores 
  Device Type= ITRS high performance device type
    Area = 282.812 mm^2
    Peak Dynamic = 319.67 W
    Subthreshold Leakage = 39.7016 W
    Subthreshold Leakage with power gating = 13.5663 W
    Gate Leakage = 0.283163 W
    Runtime Dynamic = 52.1379 W

  Total L3s: 
  Device Type= ITRS high performance device type
    Area = 47.0681 mm^2
    Peak Dynamic = 0 W
    Subthreshold Leakage = 4.50639 W
    Subthreshold Leakage with power gating = 1.75162 W
    Gate Leakage = 0.0100019 W
    Runtime Dynamic = 5.2948e-06 W

  Total NoCs (Network/Bus): 
  Device Type= ITRS high performance device type
    Area = 1.69427 mm^2
    Peak Dynamic = 0 W
    Subthreshold Leakage = 0.0488532 W
    Subthreshold Leakage with power gating = 0.014656 W
    Gate Leakage = 0.000679296 W
    Runtime Dynamic = 0 W

*****************************************************************************************
Core:
      Area = 8.83789 mm^2
      Peak Dynamic = 14.152 W
      Subthreshold Leakage = 1.24068 W
      Subthreshold Leakage with power gating = 0.423947 W
      Gate Leakage = 0.00884884 W
      Runtime Dynamic = 3.91966 W

      Instruction Fetch Unit:
        Area = 1.27919 mm^2
        Peak Dynamic = 4.00556 W
        Subthreshold Leakage = 0.201057 W
        Subthreshold Leakage with power gating = 0.0747186 W
        Gate Leakage = 0.00161561 W
        Runtime Dynamic = 0.42966 W

          Instruction Cache:
            Area = 0.652161 mm^2
            Peak Dynamic = 2.81202 W
            Subthreshold Leakage = 0.0875977 W
            Subthreshold Leakage with power gating = 0.0398556 W
            Gate Leakage = 0.000896735 W
            Runtime Dynamic = 0.290441 W

          Branch Target Buffer:
            Area = 0.153336 mm^2
            Peak Dynamic = 0.107627 W
            Subthreshold Leakage = 0.0179173 W
            Subthreshold Leakage with power gating = 0.00810978 W
            Gate Leakage = 7.44666e-05 W
            Runtime Dynamic = 0.00753304 W

          Branch Predictor:
            Area = 0.031053 mm^2
            Peak Dynamic = 0.0342172 W
            Subthreshold Leakage = 0.00458876 W
            Subthreshold Leakage with power gating = 0.00191983 W
            Gate Leakage = 2.16698e-05 W
            Runtime Dynamic = 0.00274289 W

              Global Predictor:
                Area = 0.00995681 mm^2
                Peak Dynamic = 0.00950852 W
                Subthreshold Leakage = 0.00172478 W
                Subthreshold Leakage with power gating = 0.000723306 W
                Gate Leakage = 7.8416e-06 W
                Runtime Dynamic = 0.000746144 W

              Local Predictor:
              L1_Local Predictor:
                Area = 0.00570481 mm^2
                Peak Dynamic = 0.00802062 W
                Subthreshold Leakage = 0.000876881 W
                Subthreshold Leakage with power gating = 0.000367388 W
                Gate Leakage = 4.43463e-06 W
                Runtime Dynamic = 0.00065571 W

              L2_Local Predictor:
                Area = 0.00289767 mm^2
                Peak Dynamic = 0.00398848 W
                Subthreshold Leakage = 0.00048391 W
                Subthreshold Leakage with power gating = 0.000197984 W
                Gate Leakage = 2.7078e-06 W
                Runtime Dynamic = 0.000326069 W

              Chooser:
                Area = 0.00995681 mm^2
                Peak Dynamic = 0.00950852 W
                Subthreshold Leakage = 0.00172478 W
                Subthreshold Leakage with power gating = 0.000723306 W
                Gate Leakage = 7.8416e-06 W
                Runtime Dynamic = 0.000746144 W

              RAS:
                Area = 0.00253692 mm^2
                Peak Dynamic = 0.00717956 W
                Subthreshold Leakage = 0.000262308 W
                Subthreshold Leakage with power gating = 0.000105831 W
                Gate Leakage = 1.552e-06 W
                Runtime Dynamic = 0.000594889 W

          Instruction Buffer:
            Area = 0.00457032 mm^2
            Peak Dynamic = 0.399167 W
            Subthreshold Leakage = 0.000368864 W
            Subthreshold Leakage with power gating = 0.00012853 W
            Gate Leakage = 2.16072e-06 W
            Runtime Dynamic = 0.0416576 W

          Instruction Decoder:
            Area = 0.427303 mm^2
            Peak Dynamic = 0.557586 W
            Subthreshold Leakage = 0.0861737 W
            Subthreshold Leakage with power gating = 0.0235019 W
            Gate Leakage = 0.000530726 W
            Runtime Dynamic = 0.0872855 W

      Renaming Unit:
        Area = 0.0885597 mm^2
        Peak Dynamic = 2.92993 W
        Subthreshold Leakage = 0.0187491 W
        Subthreshold Leakage with power gating = 0.009366 W
        Gate Leakage = 0.000274281 W
        Runtime Dynamic = 0.0814939 W

          Int Front End RAT:
            Area = 0.0277132 mm^2
            Peak Dynamic = 0.487067 W
            Subthreshold Leakage = 0.00156023 W
            Subthreshold Leakage with power gating = 0.000889329 W
            Gate Leakage = 1.20209e-05 W
            Runtime Dynamic = 0.0738163 W

          FP Front End RAT:
            Area = 0.0402703 mm^2
            Peak Dynamic = 2.26672 W
            Subthreshold Leakage = 0.0126281 W
            Subthreshold Leakage with power gating = 0.00719803 W
            Gate Leakage = 0.000171325 W
            Runtime Dynamic = 0 W

          Free List:
            Area = 0.00980768 mm^2
            Peak Dynamic = 0.0245223 W
            Subthreshold Leakage = 0.000150194 W
            Subthreshold Leakage with power gating = 7.5768e-05 W
            Gate Leakage = 1.08162e-06 W
            Runtime Dynamic = 0.00767754 W

      Load Store Unit:
        Area = 2.02906 mm^2
        Peak Dynamic = 3.16672 W
        Subthreshold Leakage = 0.150507 W
        Subthreshold Leakage with power gating = 0.0649054 W
        Gate Leakage = 0.00103703 W
        Runtime Dynamic = 1.20962 W

          Data Cache:
            Area = 1.62445 mm^2
            Peak Dynamic = 2.95985 W
            Subthreshold Leakage = 0.14014 W
            Subthreshold Leakage with power gating = 0.060307 W
            Gate Leakage = 0.000901876 W
            Runtime Dynamic = 0.977951 W

          LoadQ:
            Area = 0.0207189 mm^2
            Peak Dynamic = 0.0651459 W
            Subthreshold Leakage = 0.00252286 W
            Subthreshold Leakage with power gating = 0.00143803 W
            Gate Leakage = 1.97785e-05 W
            Runtime Dynamic = 0.0651459 W

          StoreQ:
            Area = 0.0247255 mm^2
            Peak Dynamic = 0.0832626 W
            Subthreshold Leakage = 0.0034342 W
            Subthreshold Leakage with power gating = 0.0019575 W
            Gate Leakage = 2.55214e-05 W
            Runtime Dynamic = 0.166525 W

      Memory Management Unit:
        Area = 0.0478667 mm^2
        Peak Dynamic = 0.202557 W
        Subthreshold Leakage = 0.010497 W
        Subthreshold Leakage with power gating = 0.00467217 W
        Gate Leakage = 0.000133538 W
        Runtime Dynamic = 0.0572121 W

          Itlb:
            Area = 0.0153187 mm^2
            Peak Dynamic = 0.0470343 W
            Subthreshold Leakage = 0.00236017 W
            Subthreshold Leakage with power gating = 0.0013453 W
            Gate Leakage = 1.72825e-05 W
            Runtime Dynamic = 0.0067367 W

          Dtlb:
            Area = 0.0217794 mm^2
            Peak Dynamic = 0.0504754 W
            Subthreshold Leakage = 0.00372634 W
            Subthreshold Leakage with power gating = 0.00212401 W
            Gate Leakage = 2.64018e-05 W
            Runtime Dynamic = 0.0504754 W

      Execution Unit:
        Area = 2.14962 mm^2
        Peak Dynamic = 3.73531 W
        Subthreshold Leakage = 0.277787 W
        Subthreshold Leakage with power gating = 0.0848929 W
        Gate Leakage = 0.00229396 W
        Runtime Dynamic = 2.11815 W

          Register Files:
            Area = 0.133129 mm^2
            Peak Dynamic = 0.0448492 W
            Subthreshold Leakage = 0.0028163 W
            Subthreshold Leakage with power gating = 0.000892763 W
            Gate Leakage = 2.138e-05 W
            Runtime Dynamic = 0.0519029 W

              Integer RF:
                Area = 0.0834736 mm^2
                Peak Dynamic = 0.0448492 W
                Subthreshold Leakage = 0.00172228 W
                Subthreshold Leakage with power gating = 0.000521558 W
                Gate Leakage = 1.3533e-05 W
                Runtime Dynamic = 0.0458685 W

              Floating Point RF:
                Area = 0.0496557 mm^2
                Peak Dynamic = 0 W
                Subthreshold Leakage = 0.00109402 W
                Subthreshold Leakage with power gating = 0.000371205 W
                Gate Leakage = 7.84697e-06 W
                Runtime Dynamic = 0.00603439 W

          Instruction Scheduler:
            Area = 0.53269 mm^2
            Peak Dynamic = 3.36823 W
            Subthreshold Leakage = 0.0327819 W
            Subthreshold Leakage with power gating = 0.0179486 W
            Gate Leakage = 0.000257818 W
            Runtime Dynamic = 0.697701 W

              Instruction Window:
                Area = 0.250713 mm^2
                Peak Dynamic = 1.44458 W
                Subthreshold Leakage = 0.0233811 W
                Subthreshold Leakage with power gating = 0.0133031 W
                Gate Leakage = 0.000189603 W
                Runtime Dynamic = 0.29608 W

              FP Instruction Window:
                Area = 0.0803106 mm^2
                Peak Dynamic = 0.848283 W
                Subthreshold Leakage = 0.00495177 W
                Subthreshold Leakage with power gating = 0.00279839 W
                Gate Leakage = 4.09447e-05 W
                Runtime Dynamic = 0.172876 W

              ROB:
                Area = 0.201666 mm^2
                Peak Dynamic = 1.07537 W
                Subthreshold Leakage = 0.00444903 W
                Subthreshold Leakage with power gating = 0.00184714 W
                Gate Leakage = 2.72708e-05 W
                Runtime Dynamic = 0.228745 W

          Integer ALUs (Count: 6 ):
            Area = 0.230726 mm^2
            Peak Dynamic = 0.197195 W
            Subthreshold Leakage = 0.0781696 W
            Subthreshold Leakage with power gating = 0.021319 W
            Gate Leakage = 0.000632815 W
            Runtime Dynamic = 0.351727 W

          Floating Point Units (FPUs) (Count: 2 ):
            Area = 1.11344 mm^2
            Peak Dynamic = 0 W
            Subthreshold Leakage = 0.0943076 W
            Subthreshold Leakage with power gating = 0.0257203 W
            Gate Leakage = 0.000763458 W
            Runtime Dynamic = 0.36494 W

          Complex ALUs (Mul/Div) (Count: 1 ):
            Area = 0.115363 mm^2
            Peak Dynamic = 0 W
            Subthreshold Leakage = 0.0390848 W
            Subthreshold Leakage with power gating = 0.0106595 W
            Gate Leakage = 0.000316407 W
            Runtime Dynamic = 0.243293 W

          Results Broadcast Bus:
            Area Overhead = 0.0135028 mm^2
            Peak Dynamic = 0.109213 W
            Subthreshold Leakage = 0.0262163 W
            Subthreshold Leakage with power gating = 0.0071499 W
            Gate Leakage = 0.000212232 W
            Runtime Dynamic = 0.408581 W

    L2
    Area = 1.08921 mm^2
    Peak Dynamic = 0.111923 W
    Subthreshold Leakage = 0.217129 W
    Subthreshold Leakage with power gating = 0.0858604 W
    Gate Leakage = 0.000539995 W
    Runtime Dynamic = 0.0235249 W

*****************************************************************************************
Core:
      Area = 8.83789 mm^2
      Peak Dynamic = 14.152 W
      Subthreshold Leakage = 1.24068 W
      Subthreshold Leakage with power gating = 0.423947 W
      Gate Leakage = 0.00884884 W
      Runtime Dynamic = 3.91963 W

      Instruction Fetch Unit:
        Area = 1.27919 mm^2
        Peak Dynamic = 4.00553 W
        Subthreshold Leakage = 0.201057 W
        Subthreshold Leakage with power gating = 0.0747186 W
        Gate Leakage = 0.00161561 W
        Runtime Dynamic = 0.429658 W

          Instruction Cache:
            Area = 0.652161 mm^2
            Peak Dynamic = 2.81199 W
            Subthreshold Leakage = 0.0875977 W
            Subthreshold Leakage with power gating = 0.0398556 W
            Gate Leakage = 0.000896735 W
            Runtime Dynamic = 0.29044 W

          Branch Target Buffer:
            Area = 0.153336 mm^2
            Peak Dynamic = 0.107627 W
            Subthreshold Leakage = 0.0179173 W
            Subthreshold Leakage with power gating = 0.00810978 W
            Gate Leakage = 7.44666e-05 W
            Runtime Dynamic = 0.00753298 W

          Branch Predictor:
            Area = 0.031053 mm^2
            Peak Dynamic = 0.0342172 W
            Subthreshold Leakage = 0.00458876 W
            Subthreshold Leakage with power gating = 0.00191983 W
            Gate Leakage = 2.16698e-05 W
            Runtime Dynamic = 0.00274287 W

              Global Predictor:
                Area = 0.00995681 mm^2
                Peak Dynamic = 0.00950852 W
                Subthreshold Leakage = 0.00172478 W
                Subthreshold Leakage with power gating = 0.000723306 W
                Gate Leakage = 7.8416e-06 W
                Runtime Dynamic = 0.000746138 W

              Local Predictor:
              L1_Local Predictor:
                Area = 0.00570481 mm^2
                Peak Dynamic = 0.00802062 W
                Subthreshold Leakage = 0.000876881 W
                Subthreshold Leakage with power gating = 0.000367388 W
                Gate Leakage = 4.43463e-06 W
                Runtime Dynamic = 0.000655706 W

              L2_Local Predictor:
                Area = 0.00289767 mm^2
                Peak Dynamic = 0.00398848 W
                Subthreshold Leakage = 0.00048391 W
                Subthreshold Leakage with power gating = 0.000197984 W
                Gate Leakage = 2.7078e-06 W
                Runtime Dynamic = 0.000326067 W

              Chooser:
                Area = 0.00995681 mm^2
                Peak Dynamic = 0.00950852 W
                Subthreshold Leakage = 0.00172478 W
                Subthreshold Leakage with power gating = 0.000723306 W
                Gate Leakage = 7.8416e-06 W
                Runtime Dynamic = 0.000746138 W

              RAS:
                Area = 0.00253692 mm^2
                Peak Dynamic = 0.00717956 W
                Subthreshold Leakage = 0.000262308 W
                Subthreshold Leakage with power gating = 0.000105831 W
                Gate Leakage = 1.552e-06 W
                Runtime Dynamic = 0.000594884 W

          Instruction Buffer:
            Area = 0.00457032 mm^2
            Peak Dynamic = 0.399167 W
            Subthreshold Leakage = 0.000368864 W
            Subthreshold Leakage with power gating = 0.00012853 W
            Gate Leakage = 2.16072e-06 W
            Runtime Dynamic = 0.0416572 W

          Instruction Decoder:
            Area = 0.427303 mm^2
            Peak Dynamic = 0.557586 W
            Subthreshold Leakage = 0.0861737 W
            Subthreshold Leakage with power gating = 0.0235019 W
            Gate Leakage = 0.000530726 W
            Runtime Dynamic = 0.0872848 W

      Renaming Unit:
        Area = 0.0885597 mm^2
        Peak Dynamic = 2.92993 W
        Subthreshold Leakage = 0.0187491 W
        Subthreshold Leakage with power gating = 0.009366 W
        Gate Leakage = 0.000274281 W
        Runtime Dynamic = 0.0814931 W

          Int Front End RAT:
            Area = 0.0277132 mm^2
            Peak Dynamic = 0.487067 W
            Subthreshold Leakage = 0.00156023 W
            Subthreshold Leakage with power gating = 0.000889329 W
            Gate Leakage = 1.20209e-05 W
            Runtime Dynamic = 0.0738156 W

          FP Front End RAT:
            Area = 0.0402703 mm^2
            Peak Dynamic = 2.26672 W
            Subthreshold Leakage = 0.0126281 W
            Subthreshold Leakage with power gating = 0.00719803 W
            Gate Leakage = 0.000171325 W
            Runtime Dynamic = 0 W

          Free List:
            Area = 0.00980768 mm^2
            Peak Dynamic = 0.0245223 W
            Subthreshold Leakage = 0.000150194 W
            Subthreshold Leakage with power gating = 7.5768e-05 W
            Gate Leakage = 1.08162e-06 W
            Runtime Dynamic = 0.00767747 W

      Load Store Unit:
        Area = 2.02906 mm^2
        Peak Dynamic = 3.1667 W
        Subthreshold Leakage = 0.150507 W
        Subthreshold Leakage with power gating = 0.0649054 W
        Gate Leakage = 0.00103703 W
        Runtime Dynamic = 1.20961 W

          Data Cache:
            Area = 1.62445 mm^2
            Peak Dynamic = 2.95983 W
            Subthreshold Leakage = 0.14014 W
            Subthreshold Leakage with power gating = 0.060307 W
            Gate Leakage = 0.000901876 W
            Runtime Dynamic = 0.977944 W

          LoadQ:
            Area = 0.0207189 mm^2
            Peak Dynamic = 0.0651454 W
            Subthreshold Leakage = 0.00252286 W
            Subthreshold Leakage with power gating = 0.00143803 W
            Gate Leakage = 1.97785e-05 W
            Runtime Dynamic = 0.0651454 W

          StoreQ:
            Area = 0.0247255 mm^2
            Peak Dynamic = 0.083262 W
            Subthreshold Leakage = 0.0034342 W
            Subthreshold Leakage with power gating = 0.0019575 W
            Gate Leakage = 2.55214e-05 W
            Runtime Dynamic = 0.166524 W

      Memory Management Unit:
        Area = 0.0478667 mm^2
        Peak Dynamic = 0.202556 W
        Subthreshold Leakage = 0.010497 W
        Subthreshold Leakage with power gating = 0.00467217 W
        Gate Leakage = 0.000133538 W
        Runtime Dynamic = 0.0572117 W

          Itlb:
            Area = 0.0153187 mm^2
            Peak Dynamic = 0.0470339 W
            Subthreshold Leakage = 0.00236017 W
            Subthreshold Leakage with power gating = 0.0013453 W
            Gate Leakage = 1.72825e-05 W
            Runtime Dynamic = 0.00673664 W

          Dtlb:
            Area = 0.0217794 mm^2
            Peak Dynamic = 0.050475 W
            Subthreshold Leakage = 0.00372634 W
            Subthreshold Leakage with power gating = 0.00212401 W
            Gate Leakage = 2.64018e-05 W
            Runtime Dynamic = 0.050475 W

      Execution Unit:
        Area = 2.14962 mm^2
        Peak Dynamic = 3.73531 W
        Subthreshold Leakage = 0.277787 W
        Subthreshold Leakage with power gating = 0.0848929 W
        Gate Leakage = 0.00229396 W
        Runtime Dynamic = 2.11813 W

          Register Files:
            Area = 0.133129 mm^2
            Peak Dynamic = 0.0448487 W
            Subthreshold Leakage = 0.0028163 W
            Subthreshold Leakage with power gating = 0.000892763 W
            Gate Leakage = 2.138e-05 W
            Runtime Dynamic = 0.0519024 W

              Integer RF:
                Area = 0.0834736 mm^2
                Peak Dynamic = 0.0448487 W
                Subthreshold Leakage = 0.00172228 W
                Subthreshold Leakage with power gating = 0.000521558 W
                Gate Leakage = 1.3533e-05 W
                Runtime Dynamic = 0.0458681 W

              Floating Point RF:
                Area = 0.0496557 mm^2
                Peak Dynamic = 0 W
                Subthreshold Leakage = 0.00109402 W
                Subthreshold Leakage with power gating = 0.000371205 W
                Gate Leakage = 7.84697e-06 W
                Runtime Dynamic = 0.00603433 W

          Instruction Scheduler:
            Area = 0.53269 mm^2
            Peak Dynamic = 3.36823 W
            Subthreshold Leakage = 0.0327819 W
            Subthreshold Leakage with power gating = 0.0179486 W
            Gate Leakage = 0.000257818 W
            Runtime Dynamic = 0.697695 W

              Instruction Window:
                Area = 0.250713 mm^2
                Peak Dynamic = 1.44458 W
                Subthreshold Leakage = 0.0233811 W
                Subthreshold Leakage with power gating = 0.0133031 W
                Gate Leakage = 0.000189603 W
                Runtime Dynamic = 0.296077 W

              FP Instruction Window:
                Area = 0.0803106 mm^2
                Peak Dynamic = 0.848283 W
                Subthreshold Leakage = 0.00495177 W
                Subthreshold Leakage with power gating = 0.00279839 W
                Gate Leakage = 4.09447e-05 W
                Runtime Dynamic = 0.172874 W

              ROB:
                Area = 0.201666 mm^2
                Peak Dynamic = 1.07537 W
                Subthreshold Leakage = 0.00444903 W
                Subthreshold Leakage with power gating = 0.00184714 W
                Gate Leakage = 2.72708e-05 W
                Runtime Dynamic = 0.228744 W

          Integer ALUs (Count: 6 ):
            Area = 0.230726 mm^2
            Peak Dynamic = 0.197193 W
            Subthreshold Leakage = 0.0781696 W
            Subthreshold Leakage with power gating = 0.021319 W
            Gate Leakage = 0.000632815 W
            Runtime Dynamic = 0.351726 W

          Floating Point Units (FPUs) (Count: 2 ):
            Area = 1.11344 mm^2
            Peak Dynamic = 0 W
            Subthreshold Leakage = 0.0943076 W
            Subthreshold Leakage with power gating = 0.0257203 W
            Gate Leakage = 0.000763458 W
            Runtime Dynamic = 0.36494 W

          Complex ALUs (Mul/Div) (Count: 1 ):
            Area = 0.115363 mm^2
            Peak Dynamic = 0 W
            Subthreshold Leakage = 0.0390848 W
            Subthreshold Leakage with power gating = 0.0106595 W
            Gate Leakage = 0.000316407 W
            Runtime Dynamic = 0.243293 W

          Results Broadcast Bus:
            Area Overhead = 0.0135028 mm^2
            Peak Dynamic = 0.109212 W
            Subthreshold Leakage = 0.0262163 W
            Subthreshold Leakage with power gating = 0.0071499 W
            Gate Leakage = 0.000212232 W
            Runtime Dynamic = 0.408578 W

    L2
    Area = 1.08921 mm^2
    Peak Dynamic = 0.111923 W
    Subthreshold Leakage = 0.217129 W
    Subthreshold Leakage with power gating = 0.0858604 W
    Gate Leakage = 0.000539995 W
    Runtime Dynamic = 0.0235249 W

*****************************************************************************************
Core:
      Area = 8.83789 mm^2
      Peak Dynamic = 14.1545 W
      Subthreshold Leakage = 1.24068 W
      Subthreshold Leakage with power gating = 0.423947 W
      Gate Leakage = 0.00884884 W
      Runtime Dynamic = 3.9209 W

      Instruction Fetch Unit:
        Area = 1.27919 mm^2
        Peak Dynamic = 4.00718 W
        Subthreshold Leakage = 0.201057 W
        Subthreshold Leakage with power gating = 0.0747186 W
        Gate Leakage = 0.00161561 W
        Runtime Dynamic = 0.429801 W

          Instruction Cache:
            Area = 0.652161 mm^2
            Peak Dynamic = 2.81359 W
            Subthreshold Leakage = 0.0875977 W
            Subthreshold Leakage with power gating = 0.0398556 W
            Gate Leakage = 0.000896735 W
            Runtime Dynamic = 0.290504 W

          Branch Target Buffer:
            Area = 0.153336 mm^2
            Peak Dynamic = 0.107627 W
            Subthreshold Leakage = 0.0179173 W
            Subthreshold Leakage with power gating = 0.00810978 W
            Gate Leakage = 7.44666e-05 W
            Runtime Dynamic = 0.00753786 W

          Branch Predictor:
            Area = 0.031053 mm^2
            Peak Dynamic = 0.0342172 W
            Subthreshold Leakage = 0.00458876 W
            Subthreshold Leakage with power gating = 0.00191983 W
            Gate Leakage = 2.16698e-05 W
            Runtime Dynamic = 0.00274445 W

              Global Predictor:
                Area = 0.00995681 mm^2
                Peak Dynamic = 0.00950852 W
                Subthreshold Leakage = 0.00172478 W
                Subthreshold Leakage with power gating = 0.000723306 W
                Gate Leakage = 7.8416e-06 W
                Runtime Dynamic = 0.000746577 W

              Local Predictor:
              L1_Local Predictor:
                Area = 0.00570481 mm^2
                Peak Dynamic = 0.00802062 W
                Subthreshold Leakage = 0.000876881 W
                Subthreshold Leakage with power gating = 0.000367388 W
                Gate Leakage = 4.43463e-06 W
                Runtime Dynamic = 0.000656078 W

              L2_Local Predictor:
                Area = 0.00289767 mm^2
                Peak Dynamic = 0.00398848 W
                Subthreshold Leakage = 0.00048391 W
                Subthreshold Leakage with power gating = 0.000197984 W
                Gate Leakage = 2.7078e-06 W
                Runtime Dynamic = 0.000326252 W

              Chooser:
                Area = 0.00995681 mm^2
                Peak Dynamic = 0.00950852 W
                Subthreshold Leakage = 0.00172478 W
                Subthreshold Leakage with power gating = 0.000723306 W
                Gate Leakage = 7.8416e-06 W
                Runtime Dynamic = 0.000746577 W

              RAS:
                Area = 0.00253692 mm^2
                Peak Dynamic = 0.00717956 W
                Subthreshold Leakage = 0.000262308 W
                Subthreshold Leakage with power gating = 0.000105831 W
                Gate Leakage = 1.552e-06 W
                Runtime Dynamic = 0.000595222 W

          Instruction Buffer:
            Area = 0.00457032 mm^2
            Peak Dynamic = 0.399167 W
            Subthreshold Leakage = 0.000368864 W
            Subthreshold Leakage with power gating = 0.00012853 W
            Gate Leakage = 2.16072e-06 W
            Runtime Dynamic = 0.0416808 W

          Instruction Decoder:
            Area = 0.427303 mm^2
            Peak Dynamic = 0.557586 W
            Subthreshold Leakage = 0.0861737 W
            Subthreshold Leakage with power gating = 0.0235019 W
            Gate Leakage = 0.000530726 W
            Runtime Dynamic = 0.0873343 W

      Renaming Unit:
        Area = 0.0885597 mm^2
        Peak Dynamic = 2.92993 W
        Subthreshold Leakage = 0.0187491 W
        Subthreshold Leakage with power gating = 0.009366 W
        Gate Leakage = 0.000274281 W
        Runtime Dynamic = 0.0815392 W

          Int Front End RAT:
            Area = 0.0277132 mm^2
            Peak Dynamic = 0.487067 W
            Subthreshold Leakage = 0.00156023 W
            Subthreshold Leakage with power gating = 0.000889329 W
            Gate Leakage = 1.20209e-05 W
            Runtime Dynamic = 0.0738573 W

          FP Front End RAT:
            Area = 0.0402703 mm^2
            Peak Dynamic = 2.26672 W
            Subthreshold Leakage = 0.0126281 W
            Subthreshold Leakage with power gating = 0.00719803 W
            Gate Leakage = 0.000171325 W
            Runtime Dynamic = 0 W

          Free List:
            Area = 0.00980768 mm^2
            Peak Dynamic = 0.0245223 W
            Subthreshold Leakage = 0.000150194 W
            Subthreshold Leakage with power gating = 7.5768e-05 W
            Gate Leakage = 1.08162e-06 W
            Runtime Dynamic = 0.00768183 W

      Load Store Unit:
        Area = 2.02906 mm^2
        Peak Dynamic = 3.16736 W
        Subthreshold Leakage = 0.150507 W
        Subthreshold Leakage with power gating = 0.0649054 W
        Gate Leakage = 0.00103703 W
        Runtime Dynamic = 1.20996 W

          Data Cache:
            Area = 1.62445 mm^2
            Peak Dynamic = 2.96043 W
            Subthreshold Leakage = 0.14014 W
            Subthreshold Leakage with power gating = 0.060307 W
            Gate Leakage = 0.000901876 W
            Runtime Dynamic = 0.978226 W

          LoadQ:
            Area = 0.0207189 mm^2
            Peak Dynamic = 0.0651641 W
            Subthreshold Leakage = 0.00252286 W
            Subthreshold Leakage with power gating = 0.00143803 W
            Gate Leakage = 1.97785e-05 W
            Runtime Dynamic = 0.0651642 W

          StoreQ:
            Area = 0.0247255 mm^2
            Peak Dynamic = 0.083286 W
            Subthreshold Leakage = 0.0034342 W
            Subthreshold Leakage with power gating = 0.0019575 W
            Gate Leakage = 2.55214e-05 W
            Runtime Dynamic = 0.166572 W

      Memory Management Unit:
        Area = 0.0478667 mm^2
        Peak Dynamic = 0.202606 W
        Subthreshold Leakage = 0.010497 W
        Subthreshold Leakage with power gating = 0.00467217 W
        Gate Leakage = 0.000133538 W
        Runtime Dynamic = 0.0572304 W

          Itlb:
            Area = 0.0153187 mm^2
            Peak Dynamic = 0.0470606 W
            Subthreshold Leakage = 0.00236017 W
            Subthreshold Leakage with power gating = 0.0013453 W
            Gate Leakage = 1.72825e-05 W
            Runtime Dynamic = 0.00674081 W

          Dtlb:
            Area = 0.0217794 mm^2
            Peak Dynamic = 0.0504895 W
            Subthreshold Leakage = 0.00372634 W
            Subthreshold Leakage with power gating = 0.00212401 W
            Gate Leakage = 2.64018e-05 W
            Runtime Dynamic = 0.0504896 W

      Execution Unit:
        Area = 2.14962 mm^2
        Peak Dynamic = 3.73552 W
        Subthreshold Leakage = 0.277787 W
        Subthreshold Leakage with power gating = 0.0848929 W
        Gate Leakage = 0.00229396 W
        Runtime Dynamic = 2.11885 W

          Register Files:
            Area = 0.133129 mm^2
            Peak Dynamic = 0.0448741 W
            Subthreshold Leakage = 0.0028163 W
            Subthreshold Leakage with power gating = 0.000892763 W
            Gate Leakage = 2.138e-05 W
            Runtime Dynamic = 0.0519319 W

              Integer RF:
                Area = 0.0834736 mm^2
                Peak Dynamic = 0.0448741 W
                Subthreshold Leakage = 0.00172228 W
                Subthreshold Leakage with power gating = 0.000521558 W
                Gate Leakage = 1.3533e-05 W
                Runtime Dynamic = 0.0458942 W

              Floating Point RF:
                Area = 0.0496557 mm^2
                Peak Dynamic = 0 W
                Subthreshold Leakage = 0.00109402 W
                Subthreshold Leakage with power gating = 0.000371205 W
                Gate Leakage = 7.84697e-06 W
                Runtime Dynamic = 0.00603776 W

          Instruction Scheduler:
            Area = 0.53269 mm^2
            Peak Dynamic = 3.36823 W
            Subthreshold Leakage = 0.0327819 W
            Subthreshold Leakage with power gating = 0.0179486 W
            Gate Leakage = 0.000257818 W
            Runtime Dynamic = 0.698074 W

              Instruction Window:
                Area = 0.250713 mm^2
                Peak Dynamic = 1.44458 W
                Subthreshold Leakage = 0.0233811 W
                Subthreshold Leakage with power gating = 0.0133031 W
                Gate Leakage = 0.000189603 W
                Runtime Dynamic = 0.296245 W

              FP Instruction Window:
                Area = 0.0803106 mm^2
                Peak Dynamic = 0.848283 W
                Subthreshold Leakage = 0.00495177 W
                Subthreshold Leakage with power gating = 0.00279839 W
                Gate Leakage = 4.09447e-05 W
                Runtime Dynamic = 0.172973 W

              ROB:
                Area = 0.201666 mm^2
                Peak Dynamic = 1.07537 W
                Subthreshold Leakage = 0.00444903 W
                Subthreshold Leakage with power gating = 0.00184714 W
                Gate Leakage = 2.72708e-05 W
                Runtime Dynamic = 0.228857 W

          Integer ALUs (Count: 6 ):
            Area = 0.230726 mm^2
            Peak Dynamic = 0.197305 W
            Subthreshold Leakage = 0.0781696 W
            Subthreshold Leakage with power gating = 0.021319 W
            Gate Leakage = 0.000632815 W
            Runtime Dynamic = 0.351836 W

          Floating Point Units (FPUs) (Count: 2 ):
            Area = 1.11344 mm^2
            Peak Dynamic = 0 W
            Subthreshold Leakage = 0.0943076 W
            Subthreshold Leakage with power gating = 0.0257203 W
            Gate Leakage = 0.000763458 W
            Runtime Dynamic = 0.36494 W

          Complex ALUs (Mul/Div) (Count: 1 ):
            Area = 0.115363 mm^2
            Peak Dynamic = 0 W
            Subthreshold Leakage = 0.0390848 W
            Subthreshold Leakage with power gating = 0.0106595 W
            Gate Leakage = 0.000316407 W
            Runtime Dynamic = 0.243293 W

          Results Broadcast Bus:
            Area Overhead = 0.0135028 mm^2
            Peak Dynamic = 0.109273 W
            Subthreshold Leakage = 0.0262163 W
            Subthreshold Leakage with power gating = 0.0071499 W
            Gate Leakage = 0.000212232 W
            Runtime Dynamic = 0.408775 W

    L2
    Area = 1.08921 mm^2
    Peak Dynamic = 0.111901 W
    Subthreshold Leakage = 0.217129 W
    Subthreshold Leakage with power gating = 0.0858604 W
    Gate Leakage = 0.000539995 W
    Runtime Dynamic = 0.0235204 W

*****************************************************************************************
Core:
      Area = 8.83789 mm^2
      Peak Dynamic = 14.153 W
      Subthreshold Leakage = 1.24068 W
      Subthreshold Leakage with power gating = 0.423947 W
      Gate Leakage = 0.00884884 W
      Runtime Dynamic = 3.92016 W

      Instruction Fetch Unit:
        Area = 1.27919 mm^2
        Peak Dynamic = 4.00611 W
        Subthreshold Leakage = 0.201057 W
        Subthreshold Leakage with power gating = 0.0747186 W
        Gate Leakage = 0.00161561 W
        Runtime Dynamic = 0.429688 W

          Instruction Cache:
            Area = 0.652161 mm^2
            Peak Dynamic = 2.81255 W
            Subthreshold Leakage = 0.0875977 W
            Subthreshold Leakage with power gating = 0.0398556 W
            Gate Leakage = 0.000896735 W
            Runtime Dynamic = 0.290443 W

          Branch Target Buffer:
            Area = 0.153336 mm^2
            Peak Dynamic = 0.107627 W
            Subthreshold Leakage = 0.0179173 W
            Subthreshold Leakage with power gating = 0.00810978 W
            Gate Leakage = 7.44666e-05 W
            Runtime Dynamic = 0.00753466 W

          Branch Predictor:
            Area = 0.031053 mm^2
            Peak Dynamic = 0.0342172 W
            Subthreshold Leakage = 0.00458876 W
            Subthreshold Leakage with power gating = 0.00191983 W
            Gate Leakage = 2.16698e-05 W
            Runtime Dynamic = 0.00274346 W

              Global Predictor:
                Area = 0.00995681 mm^2
                Peak Dynamic = 0.00950852 W
                Subthreshold Leakage = 0.00172478 W
                Subthreshold Leakage with power gating = 0.000723306 W
                Gate Leakage = 7.8416e-06 W
                Runtime Dynamic = 0.000746304 W

              Local Predictor:
              L1_Local Predictor:
                Area = 0.00570481 mm^2
                Peak Dynamic = 0.00802062 W
                Subthreshold Leakage = 0.000876881 W
                Subthreshold Leakage with power gating = 0.000367388 W
                Gate Leakage = 4.43463e-06 W
                Runtime Dynamic = 0.000655852 W

              L2_Local Predictor:
                Area = 0.00289767 mm^2
                Peak Dynamic = 0.00398848 W
                Subthreshold Leakage = 0.00048391 W
                Subthreshold Leakage with power gating = 0.000197984 W
                Gate Leakage = 2.7078e-06 W
                Runtime Dynamic = 0.000326139 W

              Chooser:
                Area = 0.00995681 mm^2
                Peak Dynamic = 0.00950852 W
                Subthreshold Leakage = 0.00172478 W
                Subthreshold Leakage with power gating = 0.000723306 W
                Gate Leakage = 7.8416e-06 W
                Runtime Dynamic = 0.000746304 W

              RAS:
                Area = 0.00253692 mm^2
                Peak Dynamic = 0.00717956 W
                Subthreshold Leakage = 0.000262308 W
                Subthreshold Leakage with power gating = 0.000105831 W
                Gate Leakage = 1.552e-06 W
                Runtime Dynamic = 0.000595 W

          Instruction Buffer:
            Area = 0.00457032 mm^2
            Peak Dynamic = 0.399167 W
            Subthreshold Leakage = 0.000368864 W
            Subthreshold Leakage with power gating = 0.00012853 W
            Gate Leakage = 2.16072e-06 W
            Runtime Dynamic = 0.0416654 W

          Instruction Decoder:
            Area = 0.427303 mm^2
            Peak Dynamic = 0.557586 W
            Subthreshold Leakage = 0.0861737 W
            Subthreshold Leakage with power gating = 0.0235019 W
            Gate Leakage = 0.000530726 W
            Runtime Dynamic = 0.087302 W

      Renaming Unit:
        Area = 0.0885597 mm^2
        Peak Dynamic = 2.92993 W
        Subthreshold Leakage = 0.0187491 W
        Subthreshold Leakage with power gating = 0.009366 W
        Gate Leakage = 0.000274281 W
        Runtime Dynamic = 0.0815092 W

          Int Front End RAT:
            Area = 0.0277132 mm^2
            Peak Dynamic = 0.487067 W
            Subthreshold Leakage = 0.00156023 W
            Subthreshold Leakage with power gating = 0.000889329 W
            Gate Leakage = 1.20209e-05 W
            Runtime Dynamic = 0.0738301 W

          FP Front End RAT:
            Area = 0.0402703 mm^2
            Peak Dynamic = 2.26672 W
            Subthreshold Leakage = 0.0126281 W
            Subthreshold Leakage with power gating = 0.00719803 W
            Gate Leakage = 0.000171325 W
            Runtime Dynamic = 0 W

          Free List:
            Area = 0.00980768 mm^2
            Peak Dynamic = 0.0245223 W
            Subthreshold Leakage = 0.000150194 W
            Subthreshold Leakage with power gating = 7.5768e-05 W
            Gate Leakage = 1.08162e-06 W
            Runtime Dynamic = 0.00767899 W

      Load Store Unit:
        Area = 2.02906 mm^2
        Peak Dynamic = 3.16711 W
        Subthreshold Leakage = 0.150507 W
        Subthreshold Leakage with power gating = 0.0649054 W
        Gate Leakage = 0.00103703 W
        Runtime Dynamic = 1.20983 W

          Data Cache:
            Area = 1.62445 mm^2
            Peak Dynamic = 2.9602 W
            Subthreshold Leakage = 0.14014 W
            Subthreshold Leakage with power gating = 0.060307 W
            Gate Leakage = 0.000901876 W
            Runtime Dynamic = 0.978116 W

          LoadQ:
            Area = 0.0207189 mm^2
            Peak Dynamic = 0.0651569 W
            Subthreshold Leakage = 0.00252286 W
            Subthreshold Leakage with power gating = 0.00143803 W
            Gate Leakage = 1.97785e-05 W
            Runtime Dynamic = 0.0651568 W

          StoreQ:
            Area = 0.0247255 mm^2
            Peak Dynamic = 0.0832767 W
            Subthreshold Leakage = 0.0034342 W
            Subthreshold Leakage with power gating = 0.0019575 W
            Gate Leakage = 2.55214e-05 W
            Runtime Dynamic = 0.166553 W

      Memory Management Unit:
        Area = 0.0478667 mm^2
        Peak Dynamic = 0.202579 W
        Subthreshold Leakage = 0.010497 W
        Subthreshold Leakage with power gating = 0.00467217 W
        Gate Leakage = 0.000133538 W
        Runtime Dynamic = 0.0572221 W

          Itlb:
            Area = 0.0153187 mm^2
            Peak Dynamic = 0.0470432 W
            Subthreshold Leakage = 0.00236017 W
            Subthreshold Leakage with power gating = 0.0013453 W
            Gate Leakage = 1.72825e-05 W
            Runtime Dynamic = 0.00673825 W

          Dtlb:
            Area = 0.0217794 mm^2
            Peak Dynamic = 0.0504839 W
            Subthreshold Leakage = 0.00372634 W
            Subthreshold Leakage with power gating = 0.00212401 W
            Gate Leakage = 2.64018e-05 W
            Runtime Dynamic = 0.0504839 W

      Execution Unit:
        Area = 2.14962 mm^2
        Peak Dynamic = 3.73538 W
        Subthreshold Leakage = 0.277787 W
        Subthreshold Leakage with power gating = 0.0848929 W
        Gate Leakage = 0.00229396 W
        Runtime Dynamic = 2.1184 W

          Register Files:
            Area = 0.133129 mm^2
            Peak Dynamic = 0.0448578 W
            Subthreshold Leakage = 0.0028163 W
            Subthreshold Leakage with power gating = 0.000892763 W
            Gate Leakage = 2.138e-05 W
            Runtime Dynamic = 0.0519127 W

              Integer RF:
                Area = 0.0834736 mm^2
                Peak Dynamic = 0.0448578 W
                Subthreshold Leakage = 0.00172228 W
                Subthreshold Leakage with power gating = 0.000521558 W
                Gate Leakage = 1.3533e-05 W
                Runtime Dynamic = 0.0458772 W

              Floating Point RF:
                Area = 0.0496557 mm^2
                Peak Dynamic = 0 W
                Subthreshold Leakage = 0.00109402 W
                Subthreshold Leakage with power gating = 0.000371205 W
                Gate Leakage = 7.84697e-06 W
                Runtime Dynamic = 0.00603552 W

          Instruction Scheduler:
            Area = 0.53269 mm^2
            Peak Dynamic = 3.36823 W
            Subthreshold Leakage = 0.0327819 W
            Subthreshold Leakage with power gating = 0.0179486 W
            Gate Leakage = 0.000257818 W
            Runtime Dynamic = 0.69783 W

              Instruction Window:
                Area = 0.250713 mm^2
                Peak Dynamic = 1.44458 W
                Subthreshold Leakage = 0.0233811 W
                Subthreshold Leakage with power gating = 0.0133031 W
                Gate Leakage = 0.000189603 W
                Runtime Dynamic = 0.296135 W

              FP Instruction Window:
                Area = 0.0803106 mm^2
                Peak Dynamic = 0.848283 W
                Subthreshold Leakage = 0.00495177 W
                Subthreshold Leakage with power gating = 0.00279839 W
                Gate Leakage = 4.09447e-05 W
                Runtime Dynamic = 0.172909 W

              ROB:
                Area = 0.201666 mm^2
                Peak Dynamic = 1.07537 W
                Subthreshold Leakage = 0.00444903 W
                Subthreshold Leakage with power gating = 0.00184714 W
                Gate Leakage = 2.72708e-05 W
                Runtime Dynamic = 0.228786 W

          Integer ALUs (Count: 6 ):
            Area = 0.230726 mm^2
            Peak Dynamic = 0.197233 W
            Subthreshold Leakage = 0.0781696 W
            Subthreshold Leakage with power gating = 0.021319 W
            Gate Leakage = 0.000632815 W
            Runtime Dynamic = 0.351767 W

          Floating Point Units (FPUs) (Count: 2 ):
            Area = 1.11344 mm^2
            Peak Dynamic = 0 W
            Subthreshold Leakage = 0.0943076 W
            Subthreshold Leakage with power gating = 0.0257203 W
            Gate Leakage = 0.000763458 W
            Runtime Dynamic = 0.36494 W

          Complex ALUs (Mul/Div) (Count: 1 ):
            Area = 0.115363 mm^2
            Peak Dynamic = 0 W
            Subthreshold Leakage = 0.0390848 W
            Subthreshold Leakage with power gating = 0.0106595 W
            Gate Leakage = 0.000316407 W
            Runtime Dynamic = 0.243293 W

          Results Broadcast Bus:
            Area Overhead = 0.0135028 mm^2
            Peak Dynamic = 0.109234 W
            Subthreshold Leakage = 0.0262163 W
            Subthreshold Leakage with power gating = 0.0071499 W
            Gate Leakage = 0.000212232 W
            Runtime Dynamic = 0.408653 W

    L2
    Area = 1.08921 mm^2
    Peak Dynamic = 0.111898 W
    Subthreshold Leakage = 0.217129 W
    Subthreshold Leakage with power gating = 0.0858604 W
    Gate Leakage = 0.000539995 W
    Runtime Dynamic = 0.0235196 W

*****************************************************************************************
Core:
      Area = 8.83789 mm^2
      Peak Dynamic = 9.08293 W
      Subthreshold Leakage = 1.24068 W
      Subthreshold Leakage with power gating = 0.423947 W
      Gate Leakage = 0.00884884 W
      Runtime Dynamic = 1.13055 W

      Instruction Fetch Unit:
        Area = 1.27919 mm^2
        Peak Dynamic = 1.4638 W
        Subthreshold Leakage = 0.201057 W
        Subthreshold Leakage with power gating = 0.0747186 W
        Gate Leakage = 0.00161561 W
        Runtime Dynamic = 0.0546279 W

          Instruction Cache:
            Area = 0.652161 mm^2
            Peak Dynamic = 0.353277 W
            Subthreshold Leakage = 0.0875977 W
            Subthreshold Leakage with power gating = 0.0398556 W
            Gate Leakage = 0.000896735 W
            Runtime Dynamic = 0.0371206 W

          Branch Target Buffer:
            Area = 0.153336 mm^2
            Peak Dynamic = 0.107627 W
            Subthreshold Leakage = 0.0179173 W
            Subthreshold Leakage with power gating = 0.00810978 W
            Gate Leakage = 7.44666e-05 W
            Runtime Dynamic = 0.000958806 W

          Branch Predictor:
            Area = 0.031053 mm^2
            Peak Dynamic = 0.0342172 W
            Subthreshold Leakage = 0.00458876 W
            Subthreshold Leakage with power gating = 0.00191983 W
            Gate Leakage = 2.16698e-05 W
            Runtime Dynamic = 0.000349308 W

              Global Predictor:
                Area = 0.00995681 mm^2
                Peak Dynamic = 0.00950852 W
                Subthreshold Leakage = 0.00172478 W
                Subthreshold Leakage with power gating = 0.000723306 W
                Gate Leakage = 7.8416e-06 W
                Runtime Dynamic = 9.53412e-05 W

              Local Predictor:
              L1_Local Predictor:
                Area = 0.00570481 mm^2
                Peak Dynamic = 0.00802062 W
                Subthreshold Leakage = 0.000876881 W
                Subthreshold Leakage with power gating = 0.000367388 W
                Gate Leakage = 4.43463e-06 W
                Runtime Dynamic = 8.38941e-05 W

              L2_Local Predictor:
                Area = 0.00289767 mm^2
                Peak Dynamic = 0.00398848 W
                Subthreshold Leakage = 0.00048391 W
                Subthreshold Leakage with power gating = 0.000197984 W
                Gate Leakage = 2.7078e-06 W
                Runtime Dynamic = 4.17185e-05 W

              Chooser:
                Area = 0.00995681 mm^2
                Peak Dynamic = 0.00950852 W
                Subthreshold Leakage = 0.00172478 W
                Subthreshold Leakage with power gating = 0.000723306 W
                Gate Leakage = 7.8416e-06 W
                Runtime Dynamic = 9.53412e-05 W

              RAS:
                Area = 0.00253692 mm^2
                Peak Dynamic = 0.00717956 W
                Subthreshold Leakage = 0.000262308 W
                Subthreshold Leakage with power gating = 0.000105831 W
                Gate Leakage = 1.552e-06 W
                Runtime Dynamic = 7.47319e-05 W

          Instruction Buffer:
            Area = 0.00457032 mm^2
            Peak Dynamic = 0.399167 W
            Subthreshold Leakage = 0.000368864 W
            Subthreshold Leakage with power gating = 0.00012853 W
            Gate Leakage = 2.16072e-06 W
            Runtime Dynamic = 0.00523345 W

          Instruction Decoder:
            Area = 0.427303 mm^2
            Peak Dynamic = 0.557586 W
            Subthreshold Leakage = 0.0861737 W
            Subthreshold Leakage with power gating = 0.0235019 W
            Gate Leakage = 0.000530726 W
            Runtime Dynamic = 0.0109657 W

      Renaming Unit:
        Area = 0.0885597 mm^2
        Peak Dynamic = 2.92993 W
        Subthreshold Leakage = 0.0187491 W
        Subthreshold Leakage with power gating = 0.009366 W
        Gate Leakage = 0.000274281 W
        Runtime Dynamic = 0.0102341 W

          Int Front End RAT:
            Area = 0.0277132 mm^2
            Peak Dynamic = 0.487067 W
            Subthreshold Leakage = 0.00156023 W
            Subthreshold Leakage with power gating = 0.000889329 W
            Gate Leakage = 1.20209e-05 W
            Runtime Dynamic = 0.00926956 W

          FP Front End RAT:
            Area = 0.0402703 mm^2
            Peak Dynamic = 2.26672 W
            Subthreshold Leakage = 0.0126281 W
            Subthreshold Leakage with power gating = 0.00719803 W
            Gate Leakage = 0.000171325 W
            Runtime Dynamic = 0 W

          Free List:
            Area = 0.00980768 mm^2
            Peak Dynamic = 0.0245223 W
            Subthreshold Leakage = 0.000150194 W
            Subthreshold Leakage with power gating = 7.5768e-05 W
            Gate Leakage = 1.08162e-06 W
            Runtime Dynamic = 0.000964532 W

      Load Store Unit:
        Area = 2.02906 mm^2
        Peak Dynamic = 1.16873 W
        Subthreshold Leakage = 0.150507 W
        Subthreshold Leakage with power gating = 0.0649054 W
        Gate Leakage = 0.00103703 W
        Runtime Dynamic = 0.151482 W

          Data Cache:
            Area = 1.62445 mm^2
            Peak Dynamic = 1.14282 W
            Subthreshold Leakage = 0.14014 W
            Subthreshold Leakage with power gating = 0.060307 W
            Gate Leakage = 0.000901876 W
            Runtime Dynamic = 0.12247 W

          LoadQ:
            Area = 0.0207189 mm^2
            Peak Dynamic = 0.00815831 W
            Subthreshold Leakage = 0.00252286 W
            Subthreshold Leakage with power gating = 0.00143803 W
            Gate Leakage = 1.97785e-05 W
            Runtime Dynamic = 0.00815829 W

          StoreQ:
            Area = 0.0247255 mm^2
            Peak Dynamic = 0.0104271 W
            Subthreshold Leakage = 0.0034342 W
            Subthreshold Leakage with power gating = 0.0019575 W
            Gate Leakage = 2.55214e-05 W
            Runtime Dynamic = 0.0208542 W

      Memory Management Unit:
        Area = 0.0478667 mm^2
        Peak Dynamic = 0.0917048 W
        Subthreshold Leakage = 0.010497 W
        Subthreshold Leakage with power gating = 0.00467217 W
        Gate Leakage = 0.000133538 W
        Runtime Dynamic = 0.00717575 W

          Itlb:
            Area = 0.0153187 mm^2
            Peak Dynamic = 0.00590897 W
            Subthreshold Leakage = 0.00236017 W
            Subthreshold Leakage with power gating = 0.0013453 W
            Gate Leakage = 1.72825e-05 W
            Runtime Dynamic = 0.000854617 W

          Dtlb:
            Area = 0.0217794 mm^2
            Peak Dynamic = 0.00632111 W
            Subthreshold Leakage = 0.00372634 W
            Subthreshold Leakage with power gating = 0.00212401 W
            Gate Leakage = 2.64018e-05 W
            Runtime Dynamic = 0.00632109 W

      Execution Unit:
        Area = 2.14962 mm^2
        Peak Dynamic = 3.41435 W
        Subthreshold Leakage = 0.277787 W
        Subthreshold Leakage with power gating = 0.0848929 W
        Gate Leakage = 0.00229396 W
        Runtime Dynamic = 0.904 W

          Register Files:
            Area = 0.133129 mm^2
            Peak Dynamic = 0.00563446 W
            Subthreshold Leakage = 0.0028163 W
            Subthreshold Leakage with power gating = 0.000892763 W
            Gate Leakage = 2.138e-05 W
            Runtime Dynamic = 0.00652058 W

              Integer RF:
                Area = 0.0834736 mm^2
                Peak Dynamic = 0.00563446 W
                Subthreshold Leakage = 0.00172228 W
                Subthreshold Leakage with power gating = 0.000521558 W
                Gate Leakage = 1.3533e-05 W
                Runtime Dynamic = 0.00576248 W

              Floating Point RF:
                Area = 0.0496557 mm^2
                Peak Dynamic = 0 W
                Subthreshold Leakage = 0.00109402 W
                Subthreshold Leakage with power gating = 0.000371205 W
                Gate Leakage = 7.84697e-06 W
                Runtime Dynamic = 0.000758098 W

          Instruction Scheduler:
            Area = 0.53269 mm^2
            Peak Dynamic = 3.36823 W
            Subthreshold Leakage = 0.0327819 W
            Subthreshold Leakage with power gating = 0.0179486 W
            Gate Leakage = 0.000257818 W
            Runtime Dynamic = 0.0876045 W

              Instruction Window:
                Area = 0.250713 mm^2
                Peak Dynamic = 1.44458 W
                Subthreshold Leakage = 0.0233811 W
                Subthreshold Leakage with power gating = 0.0133031 W
                Gate Leakage = 0.000189603 W
                Runtime Dynamic = 0.0371966 W

              FP Instruction Window:
                Area = 0.0803106 mm^2
                Peak Dynamic = 0.848283 W
                Subthreshold Leakage = 0.00495177 W
                Subthreshold Leakage with power gating = 0.00279839 W
                Gate Leakage = 4.09447e-05 W
                Runtime Dynamic = 0.0217185 W

              ROB:
                Area = 0.201666 mm^2
                Peak Dynamic = 1.07537 W
                Subthreshold Leakage = 0.00444903 W
                Subthreshold Leakage with power gating = 0.00184714 W
                Gate Leakage = 2.72708e-05 W
                Runtime Dynamic = 0.0286895 W

          Integer ALUs (Count: 6 ):
            Area = 0.230726 mm^2
            Peak Dynamic = 0.0247738 W
            Subthreshold Leakage = 0.0781696 W
            Subthreshold Leakage with power gating = 0.021319 W
            Gate Leakage = 0.000632815 W
            Runtime Dynamic = 0.150465 W

          Floating Point Units (FPUs) (Count: 2 ):
            Area = 1.11344 mm^2
            Peak Dynamic = 0 W
            Subthreshold Leakage = 0.0943076 W
            Subthreshold Leakage with power gating = 0.0257203 W
            Gate Leakage = 0.000763458 W
            Runtime Dynamic = 0.36494 W

          Complex ALUs (Mul/Div) (Count: 1 ):
            Area = 0.115363 mm^2
            Peak Dynamic = 0 W
            Subthreshold Leakage = 0.0390848 W
            Subthreshold Leakage with power gating = 0.0106595 W
            Gate Leakage = 0.000316407 W
            Runtime Dynamic = 0.243293 W

          Results Broadcast Bus:
            Area Overhead = 0.0135028 mm^2
            Peak Dynamic = 0.0137205 W
            Subthreshold Leakage = 0.0262163 W
            Subthreshold Leakage with power gating = 0.0071499 W
            Gate Leakage = 0.000212232 W
            Runtime Dynamic = 0.0511767 W

    L2
    Area = 1.08921 mm^2
    Peak Dynamic = 0.0144126 W
    Subthreshold Leakage = 0.217129 W
    Subthreshold Leakage with power gating = 0.0858604 W
    Gate Leakage = 0.000539995 W
    Runtime Dynamic = 0.00302988 W

*****************************************************************************************
Core:
      Area = 8.83789 mm^2
      Peak Dynamic = 9.08697 W
      Subthreshold Leakage = 1.24068 W
      Subthreshold Leakage with power gating = 0.423947 W
      Gate Leakage = 0.00884884 W
      Runtime Dynamic = 1.13273 W

      Instruction Fetch Unit:
        Area = 1.27919 mm^2
        Peak Dynamic = 1.46597 W
        Subthreshold Leakage = 0.201057 W
        Subthreshold Leakage with power gating = 0.0747186 W
        Gate Leakage = 0.00161561 W
        Runtime Dynamic = 0.0549329 W

          Instruction Cache:
            Area = 0.652161 mm^2
            Peak Dynamic = 0.355369 W
            Subthreshold Leakage = 0.0875977 W
            Subthreshold Leakage with power gating = 0.0398556 W
            Gate Leakage = 0.000896735 W
            Runtime Dynamic = 0.0373212 W

          Branch Target Buffer:
            Area = 0.153336 mm^2
            Peak Dynamic = 0.107627 W
            Subthreshold Leakage = 0.0179173 W
            Subthreshold Leakage with power gating = 0.00810978 W
            Gate Leakage = 7.44666e-05 W
            Runtime Dynamic = 0.000965024 W

          Branch Predictor:
            Area = 0.031053 mm^2
            Peak Dynamic = 0.0342172 W
            Subthreshold Leakage = 0.00458876 W
            Subthreshold Leakage with power gating = 0.00191983 W
            Gate Leakage = 2.16698e-05 W
            Runtime Dynamic = 0.000351517 W

              Global Predictor:
                Area = 0.00995681 mm^2
                Peak Dynamic = 0.00950852 W
                Subthreshold Leakage = 0.00172478 W
                Subthreshold Leakage with power gating = 0.000723306 W
                Gate Leakage = 7.8416e-06 W
                Runtime Dynamic = 9.59547e-05 W

              Local Predictor:
              L1_Local Predictor:
                Area = 0.00570481 mm^2
                Peak Dynamic = 0.00802062 W
                Subthreshold Leakage = 0.000876881 W
                Subthreshold Leakage with power gating = 0.000367388 W
                Gate Leakage = 4.43463e-06 W
                Runtime Dynamic = 8.44326e-05 W

              L2_Local Predictor:
                Area = 0.00289767 mm^2
                Peak Dynamic = 0.00398848 W
                Subthreshold Leakage = 0.00048391 W
                Subthreshold Leakage with power gating = 0.000197984 W
                Gate Leakage = 2.7078e-06 W
                Runtime Dynamic = 4.19863e-05 W

              Chooser:
                Area = 0.00995681 mm^2
                Peak Dynamic = 0.00950852 W
                Subthreshold Leakage = 0.00172478 W
                Subthreshold Leakage with power gating = 0.000723306 W
                Gate Leakage = 7.8416e-06 W
                Runtime Dynamic = 9.59547e-05 W

              RAS:
                Area = 0.00253692 mm^2
                Peak Dynamic = 0.00717956 W
                Subthreshold Leakage = 0.000262308 W
                Subthreshold Leakage with power gating = 0.000105831 W
                Gate Leakage = 1.552e-06 W
                Runtime Dynamic = 7.51753e-05 W

          Instruction Buffer:
            Area = 0.00457032 mm^2
            Peak Dynamic = 0.399167 W
            Subthreshold Leakage = 0.000368864 W
            Subthreshold Leakage with power gating = 0.00012853 W
            Gate Leakage = 2.16072e-06 W
            Runtime Dynamic = 0.00526446 W

          Instruction Decoder:
            Area = 0.427303 mm^2
            Peak Dynamic = 0.557586 W
            Subthreshold Leakage = 0.0861737 W
            Subthreshold Leakage with power gating = 0.0235019 W
            Gate Leakage = 0.000530726 W
            Runtime Dynamic = 0.0110307 W

      Renaming Unit:
        Area = 0.0885597 mm^2
        Peak Dynamic = 2.92993 W
        Subthreshold Leakage = 0.0187491 W
        Subthreshold Leakage with power gating = 0.009366 W
        Gate Leakage = 0.000274281 W
        Runtime Dynamic = 0.0102946 W

          Int Front End RAT:
            Area = 0.0277132 mm^2
            Peak Dynamic = 0.487067 W
            Subthreshold Leakage = 0.00156023 W
            Subthreshold Leakage with power gating = 0.000889329 W
            Gate Leakage = 1.20209e-05 W
            Runtime Dynamic = 0.00932431 W

          FP Front End RAT:
            Area = 0.0402703 mm^2
            Peak Dynamic = 2.26672 W
            Subthreshold Leakage = 0.0126281 W
            Subthreshold Leakage with power gating = 0.00719803 W
            Gate Leakage = 0.000171325 W
            Runtime Dynamic = 0 W

          Free List:
            Area = 0.00980768 mm^2
            Peak Dynamic = 0.0245223 W
            Subthreshold Leakage = 0.000150194 W
            Subthreshold Leakage with power gating = 7.5768e-05 W
            Gate Leakage = 1.08162e-06 W
            Runtime Dynamic = 0.000970247 W

      Load Store Unit:
        Area = 2.02906 mm^2
        Peak Dynamic = 1.17017 W
        Subthreshold Leakage = 0.150507 W
        Subthreshold Leakage with power gating = 0.0649054 W
        Gate Leakage = 0.00103703 W
        Runtime Dynamic = 0.152248 W

          Data Cache:
            Area = 1.62445 mm^2
            Peak Dynamic = 1.14413 W
            Subthreshold Leakage = 0.14014 W
            Subthreshold Leakage with power gating = 0.060307 W
            Gate Leakage = 0.000901876 W
            Runtime Dynamic = 0.123089 W

          LoadQ:
            Area = 0.0207189 mm^2
            Peak Dynamic = 0.00819954 W
            Subthreshold Leakage = 0.00252286 W
            Subthreshold Leakage with power gating = 0.00143803 W
            Gate Leakage = 1.97785e-05 W
            Runtime Dynamic = 0.0081995 W

          StoreQ:
            Area = 0.0247255 mm^2
            Peak Dynamic = 0.0104798 W
            Subthreshold Leakage = 0.0034342 W
            Subthreshold Leakage with power gating = 0.0019575 W
            Gate Leakage = 2.55214e-05 W
            Runtime Dynamic = 0.0209595 W

      Memory Management Unit:
        Area = 0.0478667 mm^2
        Peak Dynamic = 0.0917903 W
        Subthreshold Leakage = 0.010497 W
        Subthreshold Leakage with power gating = 0.00467217 W
        Gate Leakage = 0.000133538 W
        Runtime Dynamic = 0.00721279 W

          Itlb:
            Area = 0.0153187 mm^2
            Peak Dynamic = 0.00594397 W
            Subthreshold Leakage = 0.00236017 W
            Subthreshold Leakage with power gating = 0.0013453 W
            Gate Leakage = 1.72825e-05 W
            Runtime Dynamic = 0.000859729 W

          Dtlb:
            Area = 0.0217794 mm^2
            Peak Dynamic = 0.00635305 W
            Subthreshold Leakage = 0.00372634 W
            Subthreshold Leakage with power gating = 0.00212401 W
            Gate Leakage = 2.64018e-05 W
            Runtime Dynamic = 0.00635302 W

      Execution Unit:
        Area = 2.14962 mm^2
        Peak Dynamic = 3.41462 W
        Subthreshold Leakage = 0.277787 W
        Subthreshold Leakage with power gating = 0.0848929 W
        Gate Leakage = 0.00229396 W
        Runtime Dynamic = 0.904998 W

          Register Files:
            Area = 0.133129 mm^2
            Peak Dynamic = 0.00566798 W
            Subthreshold Leakage = 0.0028163 W
            Subthreshold Leakage with power gating = 0.000892763 W
            Gate Leakage = 2.138e-05 W
            Runtime Dynamic = 0.00655921 W

              Integer RF:
                Area = 0.0834736 mm^2
                Peak Dynamic = 0.00566798 W
                Subthreshold Leakage = 0.00172228 W
                Subthreshold Leakage with power gating = 0.000521558 W
                Gate Leakage = 1.3533e-05 W
                Runtime Dynamic = 0.00579662 W

              Floating Point RF:
                Area = 0.0496557 mm^2
                Peak Dynamic = 0 W
                Subthreshold Leakage = 0.00109402 W
                Subthreshold Leakage with power gating = 0.000371205 W
                Gate Leakage = 7.84697e-06 W
                Runtime Dynamic = 0.000762589 W

          Instruction Scheduler:
            Area = 0.53269 mm^2
            Peak Dynamic = 3.36823 W
            Subthreshold Leakage = 0.0327819 W
            Subthreshold Leakage with power gating = 0.0179486 W
            Gate Leakage = 0.000257818 W
            Runtime Dynamic = 0.0881164 W

              Instruction Window:
                Area = 0.250713 mm^2
                Peak Dynamic = 1.44458 W
                Subthreshold Leakage = 0.0233811 W
                Subthreshold Leakage with power gating = 0.0133031 W
                Gate Leakage = 0.000189603 W
                Runtime Dynamic = 0.037417 W

              FP Instruction Window:
                Area = 0.0803106 mm^2
                Peak Dynamic = 0.848283 W
                Subthreshold Leakage = 0.00495177 W
                Subthreshold Leakage with power gating = 0.00279839 W
                Gate Leakage = 4.09447e-05 W
                Runtime Dynamic = 0.0218471 W

              ROB:
                Area = 0.201666 mm^2
                Peak Dynamic = 1.07537 W
                Subthreshold Leakage = 0.00444903 W
                Subthreshold Leakage with power gating = 0.00184714 W
                Gate Leakage = 2.72708e-05 W
                Runtime Dynamic = 0.0288522 W

          Integer ALUs (Count: 6 ):
            Area = 0.230726 mm^2
            Peak Dynamic = 0.0249212 W
            Subthreshold Leakage = 0.0781696 W
            Subthreshold Leakage with power gating = 0.021319 W
            Gate Leakage = 0.000632815 W
            Runtime Dynamic = 0.150627 W

          Floating Point Units (FPUs) (Count: 2 ):
            Area = 1.11344 mm^2
            Peak Dynamic = 0 W
            Subthreshold Leakage = 0.0943076 W
            Subthreshold Leakage with power gating = 0.0257203 W
            Gate Leakage = 0.000763458 W
            Runtime Dynamic = 0.36494 W

          Complex ALUs (Mul/Div) (Count: 1 ):
            Area = 0.115363 mm^2
            Peak Dynamic = 0 W
            Subthreshold Leakage = 0.0390848 W
            Subthreshold Leakage with power gating = 0.0106595 W
            Gate Leakage = 0.000316407 W
            Runtime Dynamic = 0.243293 W

          Results Broadcast Bus:
            Area Overhead = 0.0135028 mm^2
            Peak Dynamic = 0.0138021 W
            Subthreshold Leakage = 0.0262163 W
            Subthreshold Leakage with power gating = 0.0071499 W
            Gate Leakage = 0.000212232 W
            Runtime Dynamic = 0.0514631 W

    L2
    Area = 1.08921 mm^2
    Peak Dynamic = 0.0144814 W
    Subthreshold Leakage = 0.217129 W
    Subthreshold Leakage with power gating = 0.0858604 W
    Gate Leakage = 0.000539995 W
    Runtime Dynamic = 0.00304448 W

*****************************************************************************************
Core:
      Area = 8.83789 mm^2
      Peak Dynamic = 9.08784 W
      Subthreshold Leakage = 1.24068 W
      Subthreshold Leakage with power gating = 0.423947 W
      Gate Leakage = 0.00884884 W
      Runtime Dynamic = 1.13321 W

      Instruction Fetch Unit:
        Area = 1.27919 mm^2
        Peak Dynamic = 1.46647 W
        Subthreshold Leakage = 0.201057 W
        Subthreshold Leakage with power gating = 0.0747186 W
        Gate Leakage = 0.00161561 W
        Runtime Dynamic = 0.0550202 W

          Instruction Cache:
            Area = 0.652161 mm^2
            Peak Dynamic = 0.355854 W
            Subthreshold Leakage = 0.0875977 W
            Subthreshold Leakage with power gating = 0.0398556 W
            Gate Leakage = 0.000896735 W
            Runtime Dynamic = 0.0373839 W

          Branch Target Buffer:
            Area = 0.153336 mm^2
            Peak Dynamic = 0.107627 W
            Subthreshold Leakage = 0.0179173 W
            Subthreshold Leakage with power gating = 0.00810978 W
            Gate Leakage = 7.44666e-05 W
            Runtime Dynamic = 0.000966698 W

          Branch Predictor:
            Area = 0.031053 mm^2
            Peak Dynamic = 0.0342172 W
            Subthreshold Leakage = 0.00458876 W
            Subthreshold Leakage with power gating = 0.00191983 W
            Gate Leakage = 2.16698e-05 W
            Runtime Dynamic = 0.000352101 W

              Global Predictor:
                Area = 0.00995681 mm^2
                Peak Dynamic = 0.00950852 W
                Subthreshold Leakage = 0.00172478 W
                Subthreshold Leakage with power gating = 0.000723306 W
                Gate Leakage = 7.8416e-06 W
                Runtime Dynamic = 9.61208e-05 W

              Local Predictor:
              L1_Local Predictor:
                Area = 0.00570481 mm^2
                Peak Dynamic = 0.00802062 W
                Subthreshold Leakage = 0.000876881 W
                Subthreshold Leakage with power gating = 0.000367388 W
                Gate Leakage = 4.43463e-06 W
                Runtime Dynamic = 8.45787e-05 W

              L2_Local Predictor:
                Area = 0.00289767 mm^2
                Peak Dynamic = 0.00398848 W
                Subthreshold Leakage = 0.00048391 W
                Subthreshold Leakage with power gating = 0.000197984 W
                Gate Leakage = 2.7078e-06 W
                Runtime Dynamic = 4.20589e-05 W

              Chooser:
                Area = 0.00995681 mm^2
                Peak Dynamic = 0.00950852 W
                Subthreshold Leakage = 0.00172478 W
                Subthreshold Leakage with power gating = 0.000723306 W
                Gate Leakage = 7.8416e-06 W
                Runtime Dynamic = 9.61208e-05 W

              RAS:
                Area = 0.00253692 mm^2
                Peak Dynamic = 0.00717956 W
                Subthreshold Leakage = 0.000262308 W
                Subthreshold Leakage with power gating = 0.000105831 W
                Gate Leakage = 1.552e-06 W
                Runtime Dynamic = 7.52809e-05 W

          Instruction Buffer:
            Area = 0.00457032 mm^2
            Peak Dynamic = 0.399167 W
            Subthreshold Leakage = 0.000368864 W
            Subthreshold Leakage with power gating = 0.00012853 W
            Gate Leakage = 2.16072e-06 W
            Runtime Dynamic = 0.00527165 W

          Instruction Decoder:
            Area = 0.427303 mm^2
            Peak Dynamic = 0.557586 W
            Subthreshold Leakage = 0.0861737 W
            Subthreshold Leakage with power gating = 0.0235019 W
            Gate Leakage = 0.000530726 W
            Runtime Dynamic = 0.0110457 W

      Renaming Unit:
        Area = 0.0885597 mm^2
        Peak Dynamic = 2.92993 W
        Subthreshold Leakage = 0.0187491 W
        Subthreshold Leakage with power gating = 0.009366 W
        Gate Leakage = 0.000274281 W
        Runtime Dynamic = 0.0103085 W

          Int Front End RAT:
            Area = 0.0277132 mm^2
            Peak Dynamic = 0.487067 W
            Subthreshold Leakage = 0.00156023 W
            Subthreshold Leakage with power gating = 0.000889329 W
            Gate Leakage = 1.20209e-05 W
            Runtime Dynamic = 0.00933692 W

          FP Front End RAT:
            Area = 0.0402703 mm^2
            Peak Dynamic = 2.26672 W
            Subthreshold Leakage = 0.0126281 W
            Subthreshold Leakage with power gating = 0.00719803 W
            Gate Leakage = 0.000171325 W
            Runtime Dynamic = 0 W

          Free List:
            Area = 0.00980768 mm^2
            Peak Dynamic = 0.0245223 W
            Subthreshold Leakage = 0.000150194 W
            Subthreshold Leakage with power gating = 7.5768e-05 W
            Gate Leakage = 1.08162e-06 W
            Runtime Dynamic = 0.000971572 W

      Load Store Unit:
        Area = 2.02906 mm^2
        Peak Dynamic = 1.17043 W
        Subthreshold Leakage = 0.150507 W
        Subthreshold Leakage with power gating = 0.0649054 W
        Gate Leakage = 0.00103703 W
        Runtime Dynamic = 0.152382 W

          Data Cache:
            Area = 1.62445 mm^2
            Peak Dynamic = 1.14436 W
            Subthreshold Leakage = 0.14014 W
            Subthreshold Leakage with power gating = 0.060307 W
            Gate Leakage = 0.000901876 W
            Runtime Dynamic = 0.123197 W

          LoadQ:
            Area = 0.0207189 mm^2
            Peak Dynamic = 0.0082068 W
            Subthreshold Leakage = 0.00252286 W
            Subthreshold Leakage with power gating = 0.00143803 W
            Gate Leakage = 1.97785e-05 W
            Runtime Dynamic = 0.00820673 W

          StoreQ:
            Area = 0.0247255 mm^2
            Peak Dynamic = 0.0104891 W
            Subthreshold Leakage = 0.0034342 W
            Subthreshold Leakage with power gating = 0.0019575 W
            Gate Leakage = 2.55214e-05 W
            Runtime Dynamic = 0.020978 W

      Memory Management Unit:
        Area = 0.0478667 mm^2
        Peak Dynamic = 0.0918073 W
        Subthreshold Leakage = 0.010497 W
        Subthreshold Leakage with power gating = 0.00467217 W
        Gate Leakage = 0.000133538 W
        Runtime Dynamic = 0.00721943 W

          Itlb:
            Area = 0.0153187 mm^2
            Peak Dynamic = 0.00595209 W
            Subthreshold Leakage = 0.00236017 W
            Subthreshold Leakage with power gating = 0.0013453 W
            Gate Leakage = 1.72825e-05 W
            Runtime Dynamic = 0.000860772 W

          Dtlb:
            Area = 0.0217794 mm^2
            Peak Dynamic = 0.00635867 W
            Subthreshold Leakage = 0.00372634 W
            Subthreshold Leakage with power gating = 0.00212401 W
            Gate Leakage = 2.64018e-05 W
            Runtime Dynamic = 0.00635862 W

      Execution Unit:
        Area = 2.14962 mm^2
        Peak Dynamic = 3.41469 W
        Subthreshold Leakage = 0.277787 W
        Subthreshold Leakage with power gating = 0.0848929 W
        Gate Leakage = 0.00229396 W
        Runtime Dynamic = 0.905224 W

          Register Files:
            Area = 0.133129 mm^2
            Peak Dynamic = 0.00567571 W
            Subthreshold Leakage = 0.0028163 W
            Subthreshold Leakage with power gating = 0.000892763 W
            Gate Leakage = 2.138e-05 W
            Runtime Dynamic = 0.00656816 W

              Integer RF:
                Area = 0.0834736 mm^2
                Peak Dynamic = 0.00567571 W
                Subthreshold Leakage = 0.00172228 W
                Subthreshold Leakage with power gating = 0.000521558 W
                Gate Leakage = 1.3533e-05 W
                Runtime Dynamic = 0.00580453 W

              Floating Point RF:
                Area = 0.0496557 mm^2
                Peak Dynamic = 0 W
                Subthreshold Leakage = 0.00109402 W
                Subthreshold Leakage with power gating = 0.000371205 W
                Gate Leakage = 7.84697e-06 W
                Runtime Dynamic = 0.000763623 W

          Instruction Scheduler:
            Area = 0.53269 mm^2
            Peak Dynamic = 3.36823 W
            Subthreshold Leakage = 0.0327819 W
            Subthreshold Leakage with power gating = 0.0179486 W
            Gate Leakage = 0.000257818 W
            Runtime Dynamic = 0.088234 W

              Instruction Window:
                Area = 0.250713 mm^2
                Peak Dynamic = 1.44458 W
                Subthreshold Leakage = 0.0233811 W
                Subthreshold Leakage with power gating = 0.0133031 W
                Gate Leakage = 0.000189603 W
                Runtime Dynamic = 0.0374681 W

              FP Instruction Window:
                Area = 0.0803106 mm^2
                Peak Dynamic = 0.848283 W
                Subthreshold Leakage = 0.00495177 W
                Subthreshold Leakage with power gating = 0.00279839 W
                Gate Leakage = 4.09447e-05 W
                Runtime Dynamic = 0.0218769 W

              ROB:
                Area = 0.201666 mm^2
                Peak Dynamic = 1.07537 W
                Subthreshold Leakage = 0.00444903 W
                Subthreshold Leakage with power gating = 0.00184714 W
                Gate Leakage = 2.72708e-05 W
                Runtime Dynamic = 0.028889 W

          Integer ALUs (Count: 6 ):
            Area = 0.230726 mm^2
            Peak Dynamic = 0.0249552 W
            Subthreshold Leakage = 0.0781696 W
            Subthreshold Leakage with power gating = 0.021319 W
            Gate Leakage = 0.000632815 W
            Runtime Dynamic = 0.150662 W

          Floating Point Units (FPUs) (Count: 2 ):
            Area = 1.11344 mm^2
            Peak Dynamic = 0 W
            Subthreshold Leakage = 0.0943076 W
            Subthreshold Leakage with power gating = 0.0257203 W
            Gate Leakage = 0.000763458 W
            Runtime Dynamic = 0.36494 W

          Complex ALUs (Mul/Div) (Count: 1 ):
            Area = 0.115363 mm^2
            Peak Dynamic = 0 W
            Subthreshold Leakage = 0.0390848 W
            Subthreshold Leakage with power gating = 0.0106595 W
            Gate Leakage = 0.000316407 W
            Runtime Dynamic = 0.243293 W

          Results Broadcast Bus:
            Area Overhead = 0.0135028 mm^2
            Peak Dynamic = 0.013821 W
            Subthreshold Leakage = 0.0262163 W
            Subthreshold Leakage with power gating = 0.0071499 W
            Gate Leakage = 0.000212232 W
            Runtime Dynamic = 0.0515265 W

    L2
    Area = 1.08921 mm^2
    Peak Dynamic = 0.014514 W
    Subthreshold Leakage = 0.217129 W
    Subthreshold Leakage with power gating = 0.0858604 W
    Gate Leakage = 0.000539995 W
    Runtime Dynamic = 0.00305104 W

*****************************************************************************************
Core:
      Area = 8.83789 mm^2
      Peak Dynamic = 9.08162 W
      Subthreshold Leakage = 1.24068 W
      Subthreshold Leakage with power gating = 0.423947 W
      Gate Leakage = 0.00884884 W
      Runtime Dynamic = 1.12982 W

      Instruction Fetch Unit:
        Area = 1.27919 mm^2
        Peak Dynamic = 1.46311 W
        Subthreshold Leakage = 0.201057 W
        Subthreshold Leakage with power gating = 0.0747186 W
        Gate Leakage = 0.00161561 W
        Runtime Dynamic = 0.0545058 W

          Instruction Cache:
            Area = 0.652161 mm^2
            Peak Dynamic = 0.352603 W
            Subthreshold Leakage = 0.0875977 W
            Subthreshold Leakage with power gating = 0.0398556 W
            Gate Leakage = 0.000896735 W
            Runtime Dynamic = 0.0370322 W

          Branch Target Buffer:
            Area = 0.153336 mm^2
            Peak Dynamic = 0.107627 W
            Subthreshold Leakage = 0.0179173 W
            Subthreshold Leakage with power gating = 0.00810978 W
            Gate Leakage = 7.44666e-05 W
            Runtime Dynamic = 0.000956593 W

          Branch Predictor:
            Area = 0.031053 mm^2
            Peak Dynamic = 0.0342172 W
            Subthreshold Leakage = 0.00458876 W
            Subthreshold Leakage with power gating = 0.00191983 W
            Gate Leakage = 2.16698e-05 W
            Runtime Dynamic = 0.000348541 W

              Global Predictor:
                Area = 0.00995681 mm^2
                Peak Dynamic = 0.00950852 W
                Subthreshold Leakage = 0.00172478 W
                Subthreshold Leakage with power gating = 0.000723306 W
                Gate Leakage = 7.8416e-06 W
                Runtime Dynamic = 9.51241e-05 W

              Local Predictor:
              L1_Local Predictor:
                Area = 0.00570481 mm^2
                Peak Dynamic = 0.00802062 W
                Subthreshold Leakage = 0.000876881 W
                Subthreshold Leakage with power gating = 0.000367388 W
                Gate Leakage = 4.43463e-06 W
                Runtime Dynamic = 8.37039e-05 W

              L2_Local Predictor:
                Area = 0.00289767 mm^2
                Peak Dynamic = 0.00398848 W
                Subthreshold Leakage = 0.00048391 W
                Subthreshold Leakage with power gating = 0.000197984 W
                Gate Leakage = 2.7078e-06 W
                Runtime Dynamic = 4.1624e-05 W

              Chooser:
                Area = 0.00995681 mm^2
                Peak Dynamic = 0.00950852 W
                Subthreshold Leakage = 0.00172478 W
                Subthreshold Leakage with power gating = 0.000723306 W
                Gate Leakage = 7.8416e-06 W
                Runtime Dynamic = 9.51241e-05 W

              RAS:
                Area = 0.00253692 mm^2
                Peak Dynamic = 0.00717956 W
                Subthreshold Leakage = 0.000262308 W
[...]
        Subthreshold Leakage = 0.277787 W
        Subthreshold Leakage with power gating = 0.0848929 W
        Gate Leakage = 0.00229396 W
        Runtime Dynamic = 0.72988 W

          Register Files:
            Area = 0.133129 mm^2
            Peak Dynamic = 0 W
            Subthreshold Leakage = 0.0028163 W
            Subthreshold Leakage with power gating = 0.000892763 W
            Gate Leakage = 2.138e-05 W
            Runtime Dynamic = 0 W

              Integer RF:
                Area = 0.0834736 mm^2
                Peak Dynamic = 0 W
                Subthreshold Leakage = 0.00172228 W
                Subthreshold Leakage with power gating = 0.000521558 W
                Gate Leakage = 1.3533e-05 W
                Runtime Dynamic = 0 W

              Floating Point RF:
                Area = 0.0496557 mm^2
                Peak Dynamic = 0 W
                Subthreshold Leakage = 0.00109402 W
                Subthreshold Leakage with power gating = 0.000371205 W
                Gate Leakage = 7.84697e-06 W
                Runtime Dynamic = 0 W

          Instruction Scheduler:
            Area = 0.53269 mm^2
            Peak Dynamic = 3.36823 W
            Subthreshold Leakage = 0.0327819 W
            Subthreshold Leakage with power gating = 0.0179486 W
            Gate Leakage = 0.000257818 W
            Runtime Dynamic = 0 W

              Instruction Window:
                Area = 0.250713 mm^2
                Peak Dynamic = 1.44458 W
                Subthreshold Leakage = 0.0233811 W
                Subthreshold Leakage with power gating = 0.0133031 W
                Gate Leakage = 0.000189603 W
                Runtime Dynamic = 0 W

              FP Instruction Window:
                Area = 0.0803106 mm^2
                Peak Dynamic = 0.848283 W
                Subthreshold Leakage = 0.00495177 W
                Subthreshold Leakage with power gating = 0.00279839 W
                Gate Leakage = 4.09447e-05 W
                Runtime Dynamic = 0 W

              ROB:
                Area = 0.201666 mm^2
                Peak Dynamic = 1.07537 W
                Subthreshold Leakage = 0.00444903 W
                Subthreshold Leakage with power gating = 0.00184714 W
                Gate Leakage = 2.72708e-05 W
                Runtime Dynamic = 0 W

          Integer ALUs (Count: 6 ):
            Area = 0.230726 mm^2
            Peak Dynamic = 0 W
            Subthreshold Leakage = 0.0781696 W
            Subthreshold Leakage with power gating = 0.021319 W
            Gate Leakage = 0.000632815 W
            Runtime Dynamic = 0.121647 W

          Floating Point Units (FPUs) (Count: 2 ):
            Area = 1.11344 mm^2
            Peak Dynamic = 0 W
            Subthreshold Leakage = 0.0943076 W
            Subthreshold Leakage with power gating = 0.0257203 W
            Gate Leakage = 0.000763458 W
            Runtime Dynamic = 0.36494 W

          Complex ALUs (Mul/Div) (Count: 1 ):
            Area = 0.115363 mm^2
            Peak Dynamic = 0 W
            Subthreshold Leakage = 0.0390848 W
            Subthreshold Leakage with power gating = 0.0106595 W
            Gate Leakage = 0.000316407 W
            Runtime Dynamic = 0.243293 W

          Results Broadcast Bus:
            Area Overhead = 0.0135028 mm^2
            Peak Dynamic = 0 W
            Subthreshold Leakage = 0.0262163 W
            Subthreshold Leakage with power gating = 0.0071499 W
            Gate Leakage = 0.000212232 W
            Runtime Dynamic = 0 W

    L2
    Area = 1.08921 mm^2
    Peak Dynamic = 0 W
    Subthreshold Leakage = 0.217129 W
    Subthreshold Leakage with power gating = 0.0858604 W
    Gate Leakage = 0.000539995 W
    Runtime Dynamic = 3.9683e-07 W

*****************************************************************************************
Core:
      Area = 8.83789 mm^2
      Peak Dynamic = 8.35527 W
      Subthreshold Leakage = 1.24068 W
      Subthreshold Leakage with power gating = 0.423947 W
      Gate Leakage = 0.00884884 W
      Runtime Dynamic = 0.72988 W

      Instruction Fetch Unit:
        Area = 1.27919 mm^2
        Peak Dynamic = 1.0986 W
        Subthreshold Leakage = 0.201057 W
        Subthreshold Leakage with power gating = 0.0747186 W
        Gate Leakage = 0.00161561 W
        Runtime Dynamic = 4.21188e-08 W

          Instruction Cache:
            Area = 0.652161 mm^2
            Peak Dynamic = 0 W
            Subthreshold Leakage = 0.0875977 W
            Subthreshold Leakage with power gating = 0.0398556 W
            Gate Leakage = 0.000896735 W
            Runtime Dynamic = 0 W

          Branch Target Buffer:
            Area = 0.153336 mm^2
            Peak Dynamic = 0.107627 W
            Subthreshold Leakage = 0.0179173 W
            Subthreshold Leakage with power gating = 0.00810978 W
            Gate Leakage = 7.44666e-05 W
            Runtime Dynamic = 0 W

          Branch Predictor:
            Area = 0.031053 mm^2
            Peak Dynamic = 0.0342172 W
            Subthreshold Leakage = 0.00458876 W
            Subthreshold Leakage with power gating = 0.00191983 W
            Gate Leakage = 2.16698e-05 W
            Runtime Dynamic = 0 W

              Global Predictor:
                Area = 0.00995681 mm^2
                Peak Dynamic = 0.00950852 W
                Subthreshold Leakage = 0.00172478 W
                Subthreshold Leakage with power gating = 0.000723306 W
                Gate Leakage = 7.8416e-06 W
                Runtime Dynamic = 0 W

              Local Predictor:
              L1_Local Predictor:
                Area = 0.00570481 mm^2
                Peak Dynamic = 0.00802062 W
                Subthreshold Leakage = 0.000876881 W
                Subthreshold Leakage with power gating = 0.000367388 W
                Gate Leakage = 4.43463e-06 W
                Runtime Dynamic = 0 W

              L2_Local Predictor:
                Area = 0.00289767 mm^2
                Peak Dynamic = 0.00398848 W
                Subthreshold Leakage = 0.00048391 W
                Subthreshold Leakage with power gating = 0.000197984 W
                Gate Leakage = 2.7078e-06 W
                Runtime Dynamic = 0 W

              Chooser:
                Area = 0.00995681 mm^2
                Peak Dynamic = 0.00950852 W
                Subthreshold Leakage = 0.00172478 W
                Subthreshold Leakage with power gating = 0.000723306 W
                Gate Leakage = 7.8416e-06 W
                Runtime Dynamic = 0 W

              RAS:
                Area = 0.00253692 mm^2
                Peak Dynamic = 0.00717956 W
                Subthreshold Leakage = 0.000262308 W
                Subthreshold Leakage with power gating = 0.000105831 W
                Gate Leakage = 1.552e-06 W
                Runtime Dynamic = 0 W

          Instruction Buffer:
            Area = 0.00457032 mm^2
            Peak Dynamic = 0.399167 W
            Subthreshold Leakage = 0.000368864 W
            Subthreshold Leakage with power gating = 0.00012853 W
            Gate Leakage = 2.16072e-06 W
            Runtime Dynamic = 0 W

          Instruction Decoder:
            Area = 0.427303 mm^2
            Peak Dynamic = 0.557586 W
            Subthreshold Leakage = 0.0861737 W
            Subthreshold Leakage with power gating = 0.0235019 W
            Gate Leakage = 0.000530726 W
            Runtime Dynamic = 0 W

      Renaming Unit:
        Area = 0.0885597 mm^2
        Peak Dynamic = 2.92993 W
        Subthreshold Leakage = 0.0187491 W
        Subthreshold Leakage with power gating = 0.009366 W
        Gate Leakage = 0.000274281 W
        Runtime Dynamic = 4.21188e-08 W

          Int Front End RAT:
            Area = 0.0277132 mm^2
            Peak Dynamic = 0.487067 W
            Subthreshold Leakage = 0.00156023 W
            Subthreshold Leakage with power gating = 0.000889329 W
            Gate Leakage = 1.20209e-05 W
            Runtime Dynamic = 0 W

          FP Front End RAT:
            Area = 0.0402703 mm^2
            Peak Dynamic = 2.26672 W
            Subthreshold Leakage = 0.0126281 W
            Subthreshold Leakage with power gating = 0.00719803 W
            Gate Leakage = 0.000171325 W
            Runtime Dynamic = 0 W

          Free List:
            Area = 0.00980768 mm^2
            Peak Dynamic = 0.0245223 W
            Subthreshold Leakage = 0.000150194 W
            Subthreshold Leakage with power gating = 7.5768e-05 W
            Gate Leakage = 1.08162e-06 W
            Runtime Dynamic = 0 W

      Load Store Unit:
        Area = 2.02906 mm^2
        Peak Dynamic = 0.882694 W
        Subthreshold Leakage = 0.150507 W
        Subthreshold Leakage with power gating = 0.0649054 W
        Gate Leakage = 0.00103703 W
        Runtime Dynamic = 4.21188e-08 W

          Data Cache:
            Area = 1.62445 mm^2
            Peak Dynamic = 0.882694 W
            Subthreshold Leakage = 0.14014 W
            Subthreshold Leakage with power gating = 0.060307 W
            Gate Leakage = 0.000901876 W
            Runtime Dynamic = 0 W

          LoadQ:
            Area = 0.0207189 mm^2
            Peak Dynamic = 0 W
            Subthreshold Leakage = 0.00252286 W
            Subthreshold Leakage with power gating = 0.00143803 W
            Gate Leakage = 1.97785e-05 W
            Runtime Dynamic = 0 W

          StoreQ:
            Area = 0.0247255 mm^2
            Peak Dynamic = 0 W
            Subthreshold Leakage = 0.0034342 W
            Subthreshold Leakage with power gating = 0.0019575 W
            Gate Leakage = 2.55214e-05 W
            Runtime Dynamic = 0 W

      Memory Management Unit:
        Area = 0.0478667 mm^2
        Peak Dynamic = 0.0758138 W
        Subthreshold Leakage = 0.010497 W
        Subthreshold Leakage with power gating = 0.00467217 W
        Gate Leakage = 0.000133538 W
        Runtime Dynamic = 4.21188e-08 W

          Itlb:
            Area = 0.0153187 mm^2
            Peak Dynamic = 0 W
            Subthreshold Leakage = 0.00236017 W
            Subthreshold Leakage with power gating = 0.0013453 W
            Gate Leakage = 1.72825e-05 W
            Runtime Dynamic = 0 W

          Dtlb:
            Area = 0.0217794 mm^2
            Peak Dynamic = 0 W
            Subthreshold Leakage = 0.00372634 W
            Subthreshold Leakage with power gating = 0.00212401 W
            Gate Leakage = 2.64018e-05 W
            Runtime Dynamic = 0 W

      Execution Unit:
        Area = 2.14962 mm^2
        Peak Dynamic = 3.36823 W
        Subthreshold Leakage = 0.277787 W
        Subthreshold Leakage with power gating = 0.0848929 W
        Gate Leakage = 0.00229396 W
        Runtime Dynamic = 0.72988 W

          Register Files:
            Area = 0.133129 mm^2
            Peak Dynamic = 0 W
            Subthreshold Leakage = 0.0028163 W
            Subthreshold Leakage with power gating = 0.000892763 W
            Gate Leakage = 2.138e-05 W
            Runtime Dynamic = 0 W

              Integer RF:
                Area = 0.0834736 mm^2
                Peak Dynamic = 0 W
                Subthreshold Leakage = 0.00172228 W
                Subthreshold Leakage with power gating = 0.000521558 W
                Gate Leakage = 1.3533e-05 W
                Runtime Dynamic = 0 W

              Floating Point RF:
                Area = 0.0496557 mm^2
                Peak Dynamic = 0 W
                Subthreshold Leakage = 0.00109402 W
                Subthreshold Leakage with power gating = 0.000371205 W
                Gate Leakage = 7.84697e-06 W
                Runtime Dynamic = 0 W

          Instruction Scheduler:
            Area = 0.53269 mm^2
            Peak Dynamic = 3.36823 W
            Subthreshold Leakage = 0.0327819 W
            Subthreshold Leakage with power gating = 0.0179486 W
            Gate Leakage = 0.000257818 W
            Runtime Dynamic = 0 W

              Instruction Window:
                Area = 0.250713 mm^2
                Peak Dynamic = 1.44458 W
                Subthreshold Leakage = 0.0233811 W
                Subthreshold Leakage with power gating = 0.0133031 W
                Gate Leakage = 0.000189603 W
                Runtime Dynamic = 0 W

              FP Instruction Window:
                Area = 0.0803106 mm^2
                Peak Dynamic = 0.848283 W
                Subthreshold Leakage = 0.00495177 W
                Subthreshold Leakage with power gating = 0.00279839 W
                Gate Leakage = 4.09447e-05 W
                Runtime Dynamic = 0 W

              ROB:
                Area = 0.201666 mm^2
                Peak Dynamic = 1.07537 W
                Subthreshold Leakage = 0.00444903 W
                Subthreshold Leakage with power gating = 0.00184714 W
                Gate Leakage = 2.72708e-05 W
                Runtime Dynamic = 0 W

          Integer ALUs (Count: 6 ):
            Area = 0.230726 mm^2
            Peak Dynamic = 0 W
            Subthreshold Leakage = 0.0781696 W
            Subthreshold Leakage with power gating = 0.021319 W
            Gate Leakage = 0.000632815 W
            Runtime Dynamic = 0.121647 W

          Floating Point Units (FPUs) (Count: 2 ):
            Area = 1.11344 mm^2
            Peak Dynamic = 0 W
            Subthreshold Leakage = 0.0943076 W
            Subthreshold Leakage with power gating = 0.0257203 W
            Gate Leakage = 0.000763458 W
            Runtime Dynamic = 0.36494 W

          Complex ALUs (Mul/Div) (Count: 1 ):
            Area = 0.115363 mm^2
            Peak Dynamic = 0 W
            Subthreshold Leakage = 0.0390848 W
            Subthreshold Leakage with power gating = 0.0106595 W
            Gate Leakage = 0.000316407 W
            Runtime Dynamic = 0.243293 W

          Results Broadcast Bus:
            Area Overhead = 0.0135028 mm^2
            Peak Dynamic = 0 W
            Subthreshold Leakage = 0.0262163 W
            Subthreshold Leakage with power gating = 0.0071499 W
            Gate Leakage = 0.000212232 W
            Runtime Dynamic = 0 W

    L2
    Area = 1.08921 mm^2
    Peak Dynamic = 0 W
    Subthreshold Leakage = 0.217129 W
    Subthreshold Leakage with power gating = 0.0858604 W
    Gate Leakage = 0.000539995 W
    Runtime Dynamic = 3.9683e-07 W

*****************************************************************************************
      L3
      Area = 2.94176 mm^2
      Peak Dynamic = 0 W
      Subthreshold Leakage = 0.28165 W
      Subthreshold Leakage with power gating = 0.109476 W
      Gate Leakage = 0.000625116 W
      Runtime Dynamic = 3.30925e-07 W

*****************************************************************************************
      L3
      Area = 2.94176 mm^2
      Peak Dynamic = 0 W
      Subthreshold Leakage = 0.28165 W
      Subthreshold Leakage with power gating = 0.109476 W
      Gate Leakage = 0.000625116 W
      Runtime Dynamic = 3.30925e-07 W

*****************************************************************************************
      L3
      Area = 2.94176 mm^2
      Peak Dynamic = 0 W
      Subthreshold Leakage = 0.28165 W
      Subthreshold Leakage with power gating = 0.109476 W
      Gate Leakage = 0.000625116 W
      Runtime Dynamic = 3.30925e-07 W

*****************************************************************************************
      L3
      Area = 2.94176 mm^2
      Peak Dynamic = 0 W
      Subthreshold Leakage = 0.28165 W
      Subthreshold Leakage with power gating = 0.109476 W
      Gate Leakage = 0.000625116 W
      Runtime Dynamic = 3.30925e-07 W

*****************************************************************************************
      L3
      Area = 2.94176 mm^2
      Peak Dynamic = 0 W
      Subthreshold Leakage = 0.28165 W
      Subthreshold Leakage with power gating = 0.109476 W
      Gate Leakage = 0.000625116 W
      Runtime Dynamic = 3.30925e-07 W

*****************************************************************************************
      L3
      Area = 2.94176 mm^2
      Peak Dynamic = 0 W
      Subthreshold Leakage = 0.28165 W
      Subthreshold Leakage with power gating = 0.109476 W
      Gate Leakage = 0.000625116 W
      Runtime Dynamic = 3.30925e-07 W

*****************************************************************************************
      L3
      Area = 2.94176 mm^2
      Peak Dynamic = 0 W
      Subthreshold Leakage = 0.28165 W
      Subthreshold Leakage with power gating = 0.109476 W
      Gate Leakage = 0.000625116 W
      Runtime Dynamic = 3.30925e-07 W

*****************************************************************************************
      L3
      Area = 2.94176 mm^2
      Peak Dynamic = 0 W
      Subthreshold Leakage = 0.28165 W
      Subthreshold Leakage with power gating = 0.109476 W
      Gate Leakage = 0.000625116 W
      Runtime Dynamic = 3.30925e-07 W

*****************************************************************************************
      L3
      Area = 2.94176 mm^2
      Peak Dynamic = 0 W
      Subthreshold Leakage = 0.28165 W
      Subthreshold Leakage with power gating = 0.109476 W
      Gate Leakage = 0.000625116 W
      Runtime Dynamic = 3.30925e-07 W

*****************************************************************************************
      L3
      Area = 2.94176 mm^2
      Peak Dynamic = 0 W
      Subthreshold Leakage = 0.28165 W
      Subthreshold Leakage with power gating = 0.109476 W
      Gate Leakage = 0.000625116 W
      Runtime Dynamic = 3.30925e-07 W

*****************************************************************************************
      L3
      Area = 2.94176 mm^2
      Peak Dynamic = 0 W
      Subthreshold Leakage = 0.28165 W
      Subthreshold Leakage with power gating = 0.109476 W
      Gate Leakage = 0.000625116 W
      Runtime Dynamic = 3.30925e-07 W

*****************************************************************************************
      L3
      Area = 2.94176 mm^2
      Peak Dynamic = 0 W
      Subthreshold Leakage = 0.28165 W
      Subthreshold Leakage with power gating = 0.109476 W
      Gate Leakage = 0.000625116 W
      Runtime Dynamic = 3.30925e-07 W

*****************************************************************************************
      L3
      Area = 2.94176 mm^2
      Peak Dynamic = 0 W
      Subthreshold Leakage = 0.28165 W
      Subthreshold Leakage with power gating = 0.109476 W
      Gate Leakage = 0.000625116 W
      Runtime Dynamic = 3.30925e-07 W

*****************************************************************************************
      L3
      Area = 2.94176 mm^2
      Peak Dynamic = 0 W
      Subthreshold Leakage = 0.28165 W
      Subthreshold Leakage with power gating = 0.109476 W
      Gate Leakage = 0.000625116 W
      Runtime Dynamic = 3.30925e-07 W

*****************************************************************************************
      L3
      Area = 2.94176 mm^2
      Peak Dynamic = 0 W
      Subthreshold Leakage = 0.28165 W
      Subthreshold Leakage with power gating = 0.109476 W
      Gate Leakage = 0.000625116 W
      Runtime Dynamic = 3.30925e-07 W

*****************************************************************************************
      L3
      Area = 2.94176 mm^2
      Peak Dynamic = 0 W
      Subthreshold Leakage = 0.28165 W
      Subthreshold Leakage with power gating = 0.109476 W
      Gate Leakage = 0.000625116 W
      Runtime Dynamic = 3.30925e-07 W

*****************************************************************************************
BUSES
      Area = 1.69427 mm^2
      Peak Dynamic = 0 W
      Subthreshold Leakage = 0.0488532 W
      Subthreshold Leakage with power gating = 0.014656 W
      Gate Leakage = 0.000679296 W
      Runtime Dynamic = 0 W

      Bus: 
        Area = 1.69427 mm^2
        Peak Dynamic = 0 W
        Subthreshold Leakage = 0.0488532 W
        Subthreshold Leakage with power gating = 0.014656 W
        Gate Leakage = 0.000679296 W
        Runtime Dynamic = 0 W

*****************************************************************************************
