McPAT (version 1.0 of Aug, 2013) is computing the target processor...
 

McPAT (version 1.0 of Aug, 2013) results  (current print level is 5)
*****************************************************************************************
  Technology 22 nm
  Using Long Channel Devices When Appropriate
  Interconnect metal projection= aggressive interconnect technology projection
  Core clock Rate(MHz) 3600

*****************************************************************************************
Processor: 
  Area = 331.575 mm^2
  Peak Power = 330.126 W
  Total Leakage = 44.5507 W
  Peak Dynamic = 285.575 W
  Subthreshold Leakage = 44.2569 W
  Subthreshold Leakage with power gating = 15.5045 W
  Gate Leakage = 0.293844 W
  Runtime Dynamic = 34.1343 W

  Total Cores: 32 cores 
  Device Type= ITRS high performance device type
    Area = 282.812 mm^2
    Peak Dynamic = 285.216 W
    Subthreshold Leakage = 39.7016 W
    Subthreshold Leakage with power gating = 13.5663 W
    Gate Leakage = 0.283163 W
    Runtime Dynamic = 33.8525 W

  Total L3s: 
  Device Type= ITRS high performance device type
    Area = 47.0681 mm^2
    Peak Dynamic = 0.358774 W
    Subthreshold Leakage = 4.50639 W
    Subthreshold Leakage with power gating = 1.75162 W
    Gate Leakage = 0.0100019 W
    Runtime Dynamic = 0.281826 W

  Total NoCs (Network/Bus): 
  Device Type= ITRS high performance device type
    Area = 1.69427 mm^2
    Peak Dynamic = 0 W
    Subthreshold Leakage = 0.0488532 W
    Subthreshold Leakage with power gating = 0.014656 W
    Gate Leakage = 0.000679296 W
    Runtime Dynamic = 0 W

*****************************************************************************************
Core:
      Area = 8.83789 mm^2
      Peak Dynamic = 8.35527 W
      Subthreshold Leakage = 1.24068 W
      Subthreshold Leakage with power gating = 0.423947 W
      Gate Leakage = 0.00884884 W
      Runtime Dynamic = 0.72988 W

      Instruction Fetch Unit:
        Area = 1.27919 mm^2
        Peak Dynamic = 1.0986 W
        Subthreshold Leakage = 0.201057 W
        Subthreshold Leakage with power gating = 0.0747186 W
        Gate Leakage = 0.00161561 W
        Runtime Dynamic = 4.21188e-08 W

          Instruction Cache:
            Area = 0.652161 mm^2
            Peak Dynamic = 0 W
            Subthreshold Leakage = 0.0875977 W
            Subthreshold Leakage with power gating = 0.0398556 W
            Gate Leakage = 0.000896735 W
            Runtime Dynamic = 0 W

          Branch Target Buffer:
            Area = 0.153336 mm^2
            Peak Dynamic = 0.107627 W
            Subthreshold Leakage = 0.0179173 W
            Subthreshold Leakage with power gating = 0.00810978 W
            Gate Leakage = 7.44666e-05 W
            Runtime Dynamic = 0 W

          Branch Predictor:
            Area = 0.031053 mm^2
            Peak Dynamic = 0.0342172 W
            Subthreshold Leakage = 0.00458876 W
            Subthreshold Leakage with power gating = 0.00191983 W
            Gate Leakage = 2.16698e-05 W
            Runtime Dynamic = 0 W

              Global Predictor:
                Area = 0.00995681 mm^2
                Peak Dynamic = 0.00950852 W
                Subthreshold Leakage = 0.00172478 W
                Subthreshold Leakage with power gating = 0.000723306 W
                Gate Leakage = 7.8416e-06 W
                Runtime Dynamic = 0 W

              Local Predictor:
              L1_Local Predictor:
                Area = 0.00570481 mm^2
                Peak Dynamic = 0.00802062 W
                Subthreshold Leakage = 0.000876881 W
                Subthreshold Leakage with power gating = 0.000367388 W
                Gate Leakage = 4.43463e-06 W
                Runtime Dynamic = 0 W

              L2_Local Predictor:
                Area = 0.00289767 mm^2
                Peak Dynamic = 0.00398848 W
                Subthreshold Leakage = 0.00048391 W
                Subthreshold Leakage with power gating = 0.000197984 W
                Gate Leakage = 2.7078e-06 W
                Runtime Dynamic = 0 W

              Chooser:
                Area = 0.00995681 mm^2
                Peak Dynamic = 0.00950852 W
                Subthreshold Leakage = 0.00172478 W
                Subthreshold Leakage with power gating = 0.000723306 W
                Gate Leakage = 7.8416e-06 W
                Runtime Dynamic = 0 W

              RAS:
                Area = 0.00253692 mm^2
                Peak Dynamic = 0.00717956 W
                Subthreshold Leakage = 0.000262308 W
                Subthreshold Leakage with power gating = 0.000105831 W
                Gate Leakage = 1.552e-06 W
                Runtime Dynamic = 0 W

          Instruction Buffer:
            Area = 0.00457032 mm^2
            Peak Dynamic = 0.399167 W
            Subthreshold Leakage = 0.000368864 W
            Subthreshold Leakage with power gating = 0.00012853 W
            Gate Leakage = 2.16072e-06 W
            Runtime Dynamic = 0 W

          Instruction Decoder:
            Area = 0.427303 mm^2
            Peak Dynamic = 0.557586 W
            Subthreshold Leakage = 0.0861737 W
            Subthreshold Leakage with power gating = 0.0235019 W
            Gate Leakage = 0.000530726 W
            Runtime Dynamic = 0 W

      Renaming Unit:
        Area = 0.0885597 mm^2
        Peak Dynamic = 2.92993 W
        Subthreshold Leakage = 0.0187491 W
        Subthreshold Leakage with power gating = 0.009366 W
        Gate Leakage = 0.000274281 W
        Runtime Dynamic = 4.21188e-08 W

          Int Front End RAT:
            Area = 0.0277132 mm^2
            Peak Dynamic = 0.487067 W
            Subthreshold Leakage = 0.00156023 W
            Subthreshold Leakage with power gating = 0.000889329 W
            Gate Leakage = 1.20209e-05 W
            Runtime Dynamic = 0 W

          FP Front End RAT:
            Area = 0.0402703 mm^2
            Peak Dynamic = 2.26672 W
            Subthreshold Leakage = 0.0126281 W
            Subthreshold Leakage with power gating = 0.00719803 W
            Gate Leakage = 0.000171325 W
            Runtime Dynamic = 0 W

          Free List:
            Area = 0.00980768 mm^2
            Peak Dynamic = 0.0245223 W
            Subthreshold Leakage = 0.000150194 W
            Subthreshold Leakage with power gating = 7.5768e-05 W
            Gate Leakage = 1.08162e-06 W
            Runtime Dynamic = 0 W

      Load Store Unit:
        Area = 2.02906 mm^2
        Peak Dynamic = 0.882694 W
        Subthreshold Leakage = 0.150507 W
        Subthreshold Leakage with power gating = 0.0649054 W
        Gate Leakage = 0.00103703 W
        Runtime Dynamic = 4.21188e-08 W

          Data Cache:
            Area = 1.62445 mm^2
            Peak Dynamic = 0.882694 W
            Subthreshold Leakage = 0.14014 W
            Subthreshold Leakage with power gating = 0.060307 W
            Gate Leakage = 0.000901876 W
            Runtime Dynamic = 0 W

          LoadQ:
            Area = 0.0207189 mm^2
            Peak Dynamic = 0 W
            Subthreshold Leakage = 0.00252286 W
            Subthreshold Leakage with power gating = 0.00143803 W
            Gate Leakage = 1.97785e-05 W
            Runtime Dynamic = 0 W

          StoreQ:
            Area = 0.0247255 mm^2
            Peak Dynamic = 0 W
            Subthreshold Leakage = 0.0034342 W
            Subthreshold Leakage with power gating = 0.0019575 W
            Gate Leakage = 2.55214e-05 W
            Runtime Dynamic = 0 W

      Memory Management Unit:
        Area = 0.0478667 mm^2
        Peak Dynamic = 0.0758138 W
        Subthreshold Leakage = 0.010497 W
        Subthreshold Leakage with power gating = 0.00467217 W
        Gate Leakage = 0.000133538 W
        Runtime Dynamic = 4.21188e-08 W

          Itlb:
            Area = 0.0153187 mm^2
            Peak Dynamic = 0 W
            Subthreshold Leakage = 0.00236017 W
            Subthreshold Leakage with power gating = 0.0013453 W
            Gate Leakage = 1.72825e-05 W
            Runtime Dynamic = 0 W

          Dtlb:
            Area = 0.0217794 mm^2
            Peak Dynamic = 0 W
            Subthreshold Leakage = 0.00372634 W
            Subthreshold Leakage with power gating = 0.00212401 W
            Gate Leakage = 2.64018e-05 W
            Runtime Dynamic = 0 W

      Execution Unit:
        Area = 2.14962 mm^2
        Peak Dynamic = 3.36823 W
        Subthreshold Leakage = 0.277787 W
        Subthreshold Leakage with power gating = 0.0848929 W
        Gate Leakage = 0.00229396 W
        Runtime Dynamic = 0.72988 W

          Register Files:
            Area = 0.133129 mm^2
            Peak Dynamic = 0 W
            Subthreshold Leakage = 0.0028163 W
            Subthreshold Leakage with power gating = 0.000892763 W
            Gate Leakage = 2.138e-05 W
            Runtime Dynamic = 0 W

              Integer RF:
                Area = 0.0834736 mm^2
                Peak Dynamic = 0 W
                Subthreshold Leakage = 0.00172228 W
                Subthreshold Leakage with power gating = 0.000521558 W
                Gate Leakage = 1.3533e-05 W
                Runtime Dynamic = 0 W

              Floating Point RF:
                Area = 0.0496557 mm^2
                Peak Dynamic = 0 W
                Subthreshold Leakage = 0.00109402 W
                Subthreshold Leakage with power gating = 0.000371205 W
                Gate Leakage = 7.84697e-06 W
                Runtime Dynamic = 0 W

          Instruction Scheduler:
            Area = 0.53269 mm^2
            Peak Dynamic = 3.36823 W
            Subthreshold Leakage = 0.0327819 W
            Subthreshold Leakage with power gating = 0.0179486 W
            Gate Leakage = 0.000257818 W
            Runtime Dynamic = 0 W

              Instruction Window:
                Area = 0.250713 mm^2
                Peak Dynamic = 1.44458 W
                Subthreshold Leakage = 0.0233811 W
                Subthreshold Leakage with power gating = 0.0133031 W
                Gate Leakage = 0.000189603 W
                Runtime Dynamic = 0 W

              FP Instruction Window:
                Area = 0.0803106 mm^2
                Peak Dynamic = 0.848283 W
                Subthreshold Leakage = 0.00495177 W
                Subthreshold Leakage with power gating = 0.00279839 W
                Gate Leakage = 4.09447e-05 W
                Runtime Dynamic = 0 W

              ROB:
                Area = 0.201666 mm^2
                Peak Dynamic = 1.07537 W
                Subthreshold Leakage = 0.00444903 W
                Subthreshold Leakage with power gating = 0.00184714 W
                Gate Leakage = 2.72708e-05 W
                Runtime Dynamic = 0 W

          Integer ALUs (Count: 6 ):
            Area = 0.230726 mm^2
            Peak Dynamic = 0 W
            Subthreshold Leakage = 0.0781696 W
            Subthreshold Leakage with power gating = 0.021319 W
            Gate Leakage = 0.000632815 W
            Runtime Dynamic = 0.121647 W

          Floating Point Units (FPUs) (Count: 2 ):
            Area = 1.11344 mm^2
            Peak Dynamic = 0 W
            Subthreshold Leakage = 0.0943076 W
            Subthreshold Leakage with power gating = 0.0257203 W
            Gate Leakage = 0.000763458 W
            Runtime Dynamic = 0.36494 W

          Complex ALUs (Mul/Div) (Count: 1 ):
            Area = 0.115363 mm^2
            Peak Dynamic = 0 W
            Subthreshold Leakage = 0.0390848 W
            Subthreshold Leakage with power gating = 0.0106595 W
            Gate Leakage = 0.000316407 W
            Runtime Dynamic = 0.243293 W

          Results Broadcast Bus:
            Area Overhead = 0.0135028 mm^2
            Peak Dynamic = 0 W
            Subthreshold Leakage = 0.0262163 W
            Subthreshold Leakage with power gating = 0.0071499 W
            Gate Leakage = 0.000212232 W
            Runtime Dynamic = 0 W

    L2
    Area = 1.08921 mm^2
    Peak Dynamic = 0 W
    Subthreshold Leakage = 0.217129 W
    Subthreshold Leakage with power gating = 0.0858604 W
    Gate Leakage = 0.000539995 W
    Runtime Dynamic = 3.9683e-07 W

*****************************************************************************************
Core:
      Area = 8.83789 mm^2
      Peak Dynamic = 10.6263 W
      Subthreshold Leakage = 1.24068 W
      Subthreshold Leakage with power gating = 0.423947 W
      Gate Leakage = 0.00884884 W
      Runtime Dynamic = 2.06172 W

      Instruction Fetch Unit:
        Area = 1.27919 mm^2
        Peak Dynamic = 2.15543 W
        Subthreshold Leakage = 0.201057 W
        Subthreshold Leakage with power gating = 0.0747186 W
        Gate Leakage = 0.00161561 W
        Runtime Dynamic = 0.0812159 W

          Instruction Cache:
            Area = 0.652161 mm^2
            Peak Dynamic = 1.02231 W
            Subthreshold Leakage = 0.0875977 W
            Subthreshold Leakage with power gating = 0.0398556 W
            Gate Leakage = 0.000896735 W
            Runtime Dynamic = 0.0337022 W

          Branch Target Buffer:
            Area = 0.153336 mm^2
            Peak Dynamic = 0.107627 W
            Subthreshold Leakage = 0.0179173 W
            Subthreshold Leakage with power gating = 0.00810978 W
            Gate Leakage = 7.44666e-05 W
            Runtime Dynamic = 0.000327873 W

          Branch Predictor:
            Area = 0.031053 mm^2
            Peak Dynamic = 0.0342172 W
            Subthreshold Leakage = 0.00458876 W
            Subthreshold Leakage with power gating = 0.00191983 W
            Gate Leakage = 2.16698e-05 W
            Runtime Dynamic = 0.000308387 W

              Global Predictor:
                Area = 0.00995681 mm^2
                Peak Dynamic = 0.00950852 W
                Subthreshold Leakage = 0.00172478 W
                Subthreshold Leakage with power gating = 0.000723306 W
                Gate Leakage = 7.8416e-06 W
                Runtime Dynamic = 3.20429e-05 W

              Local Predictor:
              L1_Local Predictor:
                Area = 0.00570481 mm^2
                Peak Dynamic = 0.00802062 W
                Subthreshold Leakage = 0.000876881 W
                Subthreshold Leakage with power gating = 0.000367388 W
                Gate Leakage = 4.43463e-06 W
                Runtime Dynamic = 2.80333e-05 W

              L2_Local Predictor:
                Area = 0.00289767 mm^2
                Peak Dynamic = 0.00398848 W
                Subthreshold Leakage = 0.00048391 W
                Subthreshold Leakage with power gating = 0.000197984 W
                Gate Leakage = 2.7078e-06 W
                Runtime Dynamic = 1.39403e-05 W

              Chooser:
                Area = 0.00995681 mm^2
                Peak Dynamic = 0.00950852 W
                Subthreshold Leakage = 0.00172478 W
                Subthreshold Leakage with power gating = 0.000723306 W
                Gate Leakage = 7.8416e-06 W
                Runtime Dynamic = 3.20429e-05 W

              RAS:
                Area = 0.00253692 mm^2
                Peak Dynamic = 0.00717956 W
                Subthreshold Leakage = 0.000262308 W
                Subthreshold Leakage with power gating = 0.000105831 W
                Gate Leakage = 1.552e-06 W
                Runtime Dynamic = 0.000216268 W

          Instruction Buffer:
            Area = 0.00457032 mm^2
            Peak Dynamic = 0.399167 W
            Subthreshold Leakage = 0.000368864 W
            Subthreshold Leakage with power gating = 0.00012853 W
            Gate Leakage = 2.16072e-06 W
            Runtime Dynamic = 0.0151446 W

          Instruction Decoder:
            Area = 0.427303 mm^2
            Peak Dynamic = 0.557586 W
            Subthreshold Leakage = 0.0861737 W
            Subthreshold Leakage with power gating = 0.0235019 W
            Gate Leakage = 0.000530726 W
            Runtime Dynamic = 0.0317327 W

      Renaming Unit:
        Area = 0.0885597 mm^2
        Peak Dynamic = 2.92993 W
        Subthreshold Leakage = 0.0187491 W
        Subthreshold Leakage with power gating = 0.009366 W
        Gate Leakage = 0.000274281 W
        Runtime Dynamic = 0.167654 W

          Int Front End RAT:
            Area = 0.0277132 mm^2
            Peak Dynamic = 0.487067 W
            Subthreshold Leakage = 0.00156023 W
            Subthreshold Leakage with power gating = 0.000889329 W
            Gate Leakage = 1.20209e-05 W
            Runtime Dynamic = 0.0233244 W

          FP Front End RAT:
            Area = 0.0402703 mm^2
            Peak Dynamic = 2.26672 W
            Subthreshold Leakage = 0.0126281 W
            Subthreshold Leakage with power gating = 0.00719803 W
            Gate Leakage = 0.000171325 W
            Runtime Dynamic = 0.140023 W

          Free List:
            Area = 0.00980768 mm^2
            Peak Dynamic = 0.0245223 W
            Subthreshold Leakage = 0.000150194 W
            Subthreshold Leakage with power gating = 7.5768e-05 W
            Gate Leakage = 1.08162e-06 W
            Runtime Dynamic = 0.00430601 W

      Load Store Unit:
        Area = 2.02906 mm^2
        Peak Dynamic = 1.51906 W
        Subthreshold Leakage = 0.150507 W
        Subthreshold Leakage with power gating = 0.0649054 W
        Gate Leakage = 0.00103703 W
        Runtime Dynamic = 0.427138 W

          Data Cache:
            Area = 1.62445 mm^2
            Peak Dynamic = 1.46142 W
            Subthreshold Leakage = 0.14014 W
            Subthreshold Leakage with power gating = 0.060307 W
            Gate Leakage = 0.000901876 W
            Runtime Dynamic = 0.362591 W

          LoadQ:
            Area = 0.0207189 mm^2
            Peak Dynamic = 0.0181506 W
            Subthreshold Leakage = 0.00252286 W
            Subthreshold Leakage with power gating = 0.00143803 W
            Gate Leakage = 1.97785e-05 W
            Runtime Dynamic = 0.0181506 W

          StoreQ:
            Area = 0.0247255 mm^2
            Peak Dynamic = 0.0231981 W
            Subthreshold Leakage = 0.0034342 W
            Subthreshold Leakage with power gating = 0.0019575 W
            Gate Leakage = 2.55214e-05 W
            Runtime Dynamic = 0.0463964 W

      Memory Management Unit:
        Area = 0.0478667 mm^2
        Peak Dynamic = 0.115121 W
        Subthreshold Leakage = 0.010497 W
        Subthreshold Leakage with power gating = 0.00467217 W
        Gate Leakage = 0.000133538 W
        Runtime Dynamic = 0.0164691 W

          Itlb:
            Area = 0.0153187 mm^2
            Peak Dynamic = 0.0170994 W
            Subthreshold Leakage = 0.00236017 W
            Subthreshold Leakage with power gating = 0.0013453 W
            Gate Leakage = 1.72825e-05 W
            Runtime Dynamic = 0.00151312 W

          Dtlb:
            Area = 0.0217794 mm^2
            Peak Dynamic = 0.0140631 W
            Subthreshold Leakage = 0.00372634 W
            Subthreshold Leakage with power gating = 0.00212401 W
            Gate Leakage = 2.64018e-05 W
            Runtime Dynamic = 0.0149559 W

      Execution Unit:
        Area = 2.14962 mm^2
        Peak Dynamic = 3.84491 W
        Subthreshold Leakage = 0.277787 W
        Subthreshold Leakage with power gating = 0.0848929 W
        Gate Leakage = 0.00229396 W
        Runtime Dynamic = 1.32878 W

          Register Files:
            Area = 0.133129 mm^2
            Peak Dynamic = 0.0660256 W
            Subthreshold Leakage = 0.0028163 W
            Subthreshold Leakage with power gating = 0.000892763 W
            Gate Leakage = 2.138e-05 W
            Runtime Dynamic = 0.0188693 W

              Integer RF:
                Area = 0.0834736 mm^2
                Peak Dynamic = 0.0260206 W
                Subthreshold Leakage = 0.00172228 W
                Subthreshold Leakage with power gating = 0.000521558 W
                Gate Leakage = 1.3533e-05 W
                Runtime Dynamic = 0.0166755 W

              Floating Point RF:
                Area = 0.0496557 mm^2
                Peak Dynamic = 0.040005 W
                Subthreshold Leakage = 0.00109402 W
                Subthreshold Leakage with power gating = 0.000371205 W
                Gate Leakage = 7.84697e-06 W
                Runtime Dynamic = 0.0021938 W

          Instruction Scheduler:
            Area = 0.53269 mm^2
            Peak Dynamic = 3.36823 W
            Subthreshold Leakage = 0.0327819 W
            Subthreshold Leakage with power gating = 0.0179486 W
            Gate Leakage = 0.000257818 W
            Runtime Dynamic = 0.236664 W

              Instruction Window:
                Area = 0.250713 mm^2
                Peak Dynamic = 1.44458 W
                Subthreshold Leakage = 0.0233811 W
                Subthreshold Leakage with power gating = 0.0133031 W
                Gate Leakage = 0.000189603 W
                Runtime Dynamic = 0.10764 W

              FP Instruction Window:
                Area = 0.0803106 mm^2
                Peak Dynamic = 0.848283 W
                Subthreshold Leakage = 0.00495177 W
                Subthreshold Leakage with power gating = 0.00279839 W
                Gate Leakage = 4.09447e-05 W
                Runtime Dynamic = 0.0628492 W

              ROB:
                Area = 0.201666 mm^2
                Peak Dynamic = 1.07537 W
                Subthreshold Leakage = 0.00444903 W
                Subthreshold Leakage with power gating = 0.00184714 W
                Gate Leakage = 2.72708e-05 W
                Runtime Dynamic = 0.0661745 W

          Integer ALUs (Count: 6 ):
            Area = 0.230726 mm^2
            Peak Dynamic = 0.0327817 W
            Subthreshold Leakage = 0.0781696 W
            Subthreshold Leakage with power gating = 0.021319 W
            Gate Leakage = 0.000632815 W
            Runtime Dynamic = 0.156873 W

          Floating Point Units (FPUs) (Count: 2 ):
            Area = 1.11344 mm^2
            Peak Dynamic = 0.263506 W
            Subthreshold Leakage = 0.0943076 W
            Subthreshold Leakage with power gating = 0.0257203 W
            Gate Leakage = 0.000763458 W
            Runtime Dynamic = 0.474149 W

          Complex ALUs (Mul/Div) (Count: 1 ):
            Area = 0.115363 mm^2
            Peak Dynamic = 0.039564 W
            Subthreshold Leakage = 0.0390848 W
            Subthreshold Leakage with power gating = 0.0106595 W
            Gate Leakage = 0.000316407 W
            Runtime Dynamic = 0.271296 W

          Results Broadcast Bus:
            Area Overhead = 0.0135028 mm^2
            Peak Dynamic = 0.0721708 W
            Subthreshold Leakage = 0.0262163 W
            Subthreshold Leakage with power gating = 0.0071499 W
            Gate Leakage = 0.000212232 W
            Runtime Dynamic = 0.170924 W

    L2
    Area = 1.08921 mm^2
    Peak Dynamic = 0.0618505 W
    Subthreshold Leakage = 0.217129 W
    Subthreshold Leakage with power gating = 0.0858604 W
    Gate Leakage = 0.000539995 W
    Runtime Dynamic = 0.0404691 W

*****************************************************************************************
Core:
      Area = 8.83789 mm^2
      Peak Dynamic = 10.2579 W
      Subthreshold Leakage = 1.24068 W
      Subthreshold Leakage with power gating = 0.423947 W
      Gate Leakage = 0.00884884 W
      Runtime Dynamic = 1.83945 W

      Instruction Fetch Unit:
        Area = 1.27919 mm^2
        Peak Dynamic = 1.98878 W
        Subthreshold Leakage = 0.201057 W
        Subthreshold Leakage with power gating = 0.0747186 W
        Gate Leakage = 0.00161561 W
        Runtime Dynamic = 0.0679 W

          Instruction Cache:
            Area = 0.652161 mm^2
            Peak Dynamic = 0.861106 W
            Subthreshold Leakage = 0.0875977 W
            Subthreshold Leakage with power gating = 0.0398556 W
            Gate Leakage = 0.000896735 W
            Runtime Dynamic = 0.0279023 W

          Branch Target Buffer:
            Area = 0.153336 mm^2
            Peak Dynamic = 0.107627 W
            Subthreshold Leakage = 0.0179173 W
            Subthreshold Leakage with power gating = 0.00810978 W
            Gate Leakage = 7.44666e-05 W
            Runtime Dynamic = 0.000258065 W

          Branch Predictor:
            Area = 0.031053 mm^2
            Peak Dynamic = 0.0342172 W
            Subthreshold Leakage = 0.00458876 W
            Subthreshold Leakage with power gating = 0.00191983 W
            Gate Leakage = 2.16698e-05 W
            Runtime Dynamic = 0.000254213 W

              Global Predictor:
                Area = 0.00995681 mm^2
                Peak Dynamic = 0.00950852 W
                Subthreshold Leakage = 0.00172478 W
                Subthreshold Leakage with power gating = 0.000723306 W
                Gate Leakage = 7.8416e-06 W
                Runtime Dynamic = 2.50755e-05 W

              Local Predictor:
              L1_Local Predictor:
                Area = 0.00570481 mm^2
                Peak Dynamic = 0.00802062 W
                Subthreshold Leakage = 0.000876881 W
                Subthreshold Leakage with power gating = 0.000367388 W
                Gate Leakage = 4.43463e-06 W
                Runtime Dynamic = 2.18949e-05 W

              L2_Local Predictor:
                Area = 0.00289767 mm^2
                Peak Dynamic = 0.00398848 W
                Subthreshold Leakage = 0.00048391 W
                Subthreshold Leakage with power gating = 0.000197984 W
                Gate Leakage = 2.7078e-06 W
                Runtime Dynamic = 1.08878e-05 W

              Chooser:
                Area = 0.00995681 mm^2
                Peak Dynamic = 0.00950852 W
                Subthreshold Leakage = 0.00172478 W
                Subthreshold Leakage with power gating = 0.000723306 W
                Gate Leakage = 7.8416e-06 W
                Runtime Dynamic = 2.50755e-05 W

              RAS:
                Area = 0.00253692 mm^2
                Peak Dynamic = 0.00717956 W
                Subthreshold Leakage = 0.000262308 W
                Subthreshold Leakage with power gating = 0.000105831 W
                Gate Leakage = 1.552e-06 W
                Runtime Dynamic = 0.000182167 W

          Instruction Buffer:
            Area = 0.00457032 mm^2
            Peak Dynamic = 0.399167 W
            Subthreshold Leakage = 0.000368864 W
            Subthreshold Leakage with power gating = 0.00012853 W
            Gate Leakage = 2.16072e-06 W
            Runtime Dynamic = 0.0127565 W

          Instruction Decoder:
            Area = 0.427303 mm^2
            Peak Dynamic = 0.557586 W
            Subthreshold Leakage = 0.0861737 W
            Subthreshold Leakage with power gating = 0.0235019 W
            Gate Leakage = 0.000530726 W
            Runtime Dynamic = 0.0267289 W

      Renaming Unit:
        Area = 0.0885597 mm^2
        Peak Dynamic = 2.92993 W
        Subthreshold Leakage = 0.0187491 W
        Subthreshold Leakage with power gating = 0.009366 W
        Gate Leakage = 0.000274281 W
        Runtime Dynamic = 0.144604 W

          Int Front End RAT:
            Area = 0.0277132 mm^2
            Peak Dynamic = 0.487067 W
            Subthreshold Leakage = 0.00156023 W
            Subthreshold Leakage with power gating = 0.000889329 W
            Gate Leakage = 1.20209e-05 W
            Runtime Dynamic = 0.0195466 W

          FP Front End RAT:
            Area = 0.0402703 mm^2
            Peak Dynamic = 2.26672 W
            Subthreshold Leakage = 0.0126281 W
            Subthreshold Leakage with power gating = 0.00719803 W
            Gate Leakage = 0.000171325 W
            Runtime Dynamic = 0.121393 W

          Free List:
            Area = 0.00980768 mm^2
            Peak Dynamic = 0.0245223 W
            Subthreshold Leakage = 0.000150194 W
            Subthreshold Leakage with power gating = 7.5768e-05 W
            Gate Leakage = 1.08162e-06 W
            Runtime Dynamic = 0.00366432 W

      Load Store Unit:
        Area = 2.02906 mm^2
        Peak Dynamic = 1.40625 W
        Subthreshold Leakage = 0.150507 W
        Subthreshold Leakage with power gating = 0.0649054 W
        Gate Leakage = 0.00103703 W
        Runtime Dynamic = 0.344654 W

          Data Cache:
            Area = 1.62445 mm^2
            Peak Dynamic = 1.35883 W
            Subthreshold Leakage = 0.14014 W
            Subthreshold Leakage with power gating = 0.060307 W
            Gate Leakage = 0.000901876 W
            Runtime Dynamic = 0.29155 W

          LoadQ:
            Area = 0.0207189 mm^2
            Peak Dynamic = 0.0149329 W
            Subthreshold Leakage = 0.00252286 W
            Subthreshold Leakage with power gating = 0.00143803 W
            Gate Leakage = 1.97785e-05 W
            Runtime Dynamic = 0.0149329 W

          StoreQ:
            Area = 0.0247255 mm^2
            Peak Dynamic = 0.0190857 W
            Subthreshold Leakage = 0.0034342 W
            Subthreshold Leakage with power gating = 0.0019575 W
            Gate Leakage = 2.55214e-05 W
            Runtime Dynamic = 0.0381714 W

      Memory Management Unit:
        Area = 0.0478667 mm^2
        Peak Dynamic = 0.108488 W
        Subthreshold Leakage = 0.010497 W
        Subthreshold Leakage with power gating = 0.00467217 W
        Gate Leakage = 0.000133538 W
        Runtime Dynamic = 0.0134946 W

          Itlb:
            Area = 0.0153187 mm^2
            Peak Dynamic = 0.014403 W
            Subthreshold Leakage = 0.00236017 W
            Subthreshold Leakage with power gating = 0.0013453 W
            Gate Leakage = 1.72825e-05 W
            Runtime Dynamic = 0.00125692 W

          Dtlb:
            Area = 0.0217794 mm^2
            Peak Dynamic = 0.0115701 W
            Subthreshold Leakage = 0.00372634 W
            Subthreshold Leakage with power gating = 0.00212401 W
            Gate Leakage = 2.64018e-05 W
            Runtime Dynamic = 0.0122376 W

      Execution Unit:
        Area = 2.14962 mm^2
        Peak Dynamic = 3.7782 W
        Subthreshold Leakage = 0.277787 W
        Subthreshold Leakage with power gating = 0.0848929 W
        Gate Leakage = 0.00229396 W
        Runtime Dynamic = 1.23853 W

          Register Files:
            Area = 0.133129 mm^2
            Peak Dynamic = 0.0568389 W
            Subthreshold Leakage = 0.0028163 W
            Subthreshold Leakage with power gating = 0.000892763 W
            Gate Leakage = 2.138e-05 W
            Runtime Dynamic = 0.0158939 W

              Integer RF:
                Area = 0.0834736 mm^2
                Peak Dynamic = 0.0221566 W
                Subthreshold Leakage = 0.00172228 W
                Subthreshold Leakage with power gating = 0.000521558 W
                Gate Leakage = 1.3533e-05 W
                Runtime Dynamic = 0.014046 W

              Floating Point RF:
                Area = 0.0496557 mm^2
                Peak Dynamic = 0.0346823 W
                Subthreshold Leakage = 0.00109402 W
                Subthreshold Leakage with power gating = 0.000371205 W
                Gate Leakage = 7.84697e-06 W
                Runtime Dynamic = 0.00184787 W

          Instruction Scheduler:
            Area = 0.53269 mm^2
            Peak Dynamic = 3.36823 W
            Subthreshold Leakage = 0.0327819 W
            Subthreshold Leakage with power gating = 0.0179486 W
            Gate Leakage = 0.000257818 W
            Runtime Dynamic = 0.199468 W

              Instruction Window:
                Area = 0.250713 mm^2
                Peak Dynamic = 1.44458 W
                Subthreshold Leakage = 0.0233811 W
                Subthreshold Leakage with power gating = 0.0133031 W
                Gate Leakage = 0.000189603 W
                Runtime Dynamic = 0.0906666 W

              FP Instruction Window:
                Area = 0.0803106 mm^2
                Peak Dynamic = 0.848283 W
                Subthreshold Leakage = 0.00495177 W
                Subthreshold Leakage with power gating = 0.00279839 W
                Gate Leakage = 4.09447e-05 W
                Runtime Dynamic = 0.0529387 W

              ROB:
                Area = 0.201666 mm^2
                Peak Dynamic = 1.07537 W
                Subthreshold Leakage = 0.00444903 W
                Subthreshold Leakage with power gating = 0.00184714 W
                Gate Leakage = 2.72708e-05 W
                Runtime Dynamic = 0.055863 W

          Integer ALUs (Count: 6 ):
            Area = 0.230726 mm^2
            Peak Dynamic = 0.0266539 W
            Subthreshold Leakage = 0.0781696 W
            Subthreshold Leakage with power gating = 0.021319 W
            Gate Leakage = 0.000632815 W
            Runtime Dynamic = 0.150606 W

          Floating Point Units (FPUs) (Count: 2 ):
            Area = 1.11344 mm^2
            Peak Dynamic = 0.228446 W
            Subthreshold Leakage = 0.0943076 W
            Subthreshold Leakage with power gating = 0.0257203 W
            Gate Leakage = 0.000763458 W
            Runtime Dynamic = 0.459619 W

          Complex ALUs (Mul/Div) (Count: 1 ):
            Area = 0.115363 mm^2
            Peak Dynamic = 0.0342995 W
            Subthreshold Leakage = 0.0390848 W
            Subthreshold Leakage with power gating = 0.0106595 W
            Gate Leakage = 0.000316407 W
            Runtime Dynamic = 0.26757 W

          Results Broadcast Bus:
            Area Overhead = 0.0135028 mm^2
            Peak Dynamic = 0.0615896 W
            Subthreshold Leakage = 0.0262163 W
            Subthreshold Leakage with power gating = 0.0071499 W
            Gate Leakage = 0.000212232 W
            Runtime Dynamic = 0.145377 W

    L2
    Area = 1.08921 mm^2
    Peak Dynamic = 0.0462203 W
    Subthreshold Leakage = 0.217129 W
    Subthreshold Leakage with power gating = 0.0858604 W
    Gate Leakage = 0.000539995 W
    Runtime Dynamic = 0.0302622 W

*****************************************************************************************
Core:
      Area = 8.83789 mm^2
      Peak Dynamic = 11.732 W
      Subthreshold Leakage = 1.24068 W
      Subthreshold Leakage with power gating = 0.423947 W
      Gate Leakage = 0.00884884 W
      Runtime Dynamic = 2.71322 W

      Instruction Fetch Unit:
        Area = 1.27919 mm^2
        Peak Dynamic = 2.66756 W
        Subthreshold Leakage = 0.201057 W
        Subthreshold Leakage with power gating = 0.0747186 W
        Gate Leakage = 0.00161561 W
        Runtime Dynamic = 0.120808 W

          Instruction Cache:
            Area = 0.652161 mm^2
            Peak Dynamic = 1.51772 W
            Subthreshold Leakage = 0.0875977 W
            Subthreshold Leakage with power gating = 0.0398556 W
            Gate Leakage = 0.000896735 W
            Runtime Dynamic = 0.0502565 W

          Branch Target Buffer:
            Area = 0.153336 mm^2
            Peak Dynamic = 0.107627 W
            Subthreshold Leakage = 0.0179173 W
            Subthreshold Leakage with power gating = 0.00810978 W
            Gate Leakage = 7.44666e-05 W
            Runtime Dynamic = 0.000495801 W

          Branch Predictor:
            Area = 0.031053 mm^2
            Peak Dynamic = 0.0342172 W
            Subthreshold Leakage = 0.00458876 W
            Subthreshold Leakage with power gating = 0.00191983 W
            Gate Leakage = 2.16698e-05 W
            Runtime Dynamic = 0.000461479 W

              Global Predictor:
                Area = 0.00995681 mm^2
                Peak Dynamic = 0.00950852 W
                Subthreshold Leakage = 0.00172478 W
                Subthreshold Leakage with power gating = 0.000723306 W
                Gate Leakage = 7.8416e-06 W
                Runtime Dynamic = 4.8803e-05 W

              Local Predictor:
              L1_Local Predictor:
                Area = 0.00570481 mm^2
                Peak Dynamic = 0.00802062 W
                Subthreshold Leakage = 0.000876881 W
                Subthreshold Leakage with power gating = 0.000367388 W
                Gate Leakage = 4.43463e-06 W
                Runtime Dynamic = 4.2799e-05 W

              L2_Local Predictor:
                Area = 0.00289767 mm^2
                Peak Dynamic = 0.00398848 W
                Subthreshold Leakage = 0.00048391 W
                Subthreshold Leakage with power gating = 0.000197984 W
                Gate Leakage = 2.7078e-06 W
                Runtime Dynamic = 2.12829e-05 W

              Chooser:
                Area = 0.00995681 mm^2
                Peak Dynamic = 0.00950852 W
                Subthreshold Leakage = 0.00172478 W
                Subthreshold Leakage with power gating = 0.000723306 W
                Gate Leakage = 7.8416e-06 W
                Runtime Dynamic = 4.8803e-05 W

              RAS:
                Area = 0.00253692 mm^2
                Peak Dynamic = 0.00717956 W
                Subthreshold Leakage = 0.000262308 W
                Subthreshold Leakage with power gating = 0.000105831 W
                Gate Leakage = 1.552e-06 W
                Runtime Dynamic = 0.000321075 W

          Instruction Buffer:
            Area = 0.00457032 mm^2
            Peak Dynamic = 0.399167 W
            Subthreshold Leakage = 0.000368864 W
            Subthreshold Leakage with power gating = 0.00012853 W
            Gate Leakage = 2.16072e-06 W
            Runtime Dynamic = 0.0224836 W

          Instruction Decoder:
            Area = 0.427303 mm^2
            Peak Dynamic = 0.557586 W
            Subthreshold Leakage = 0.0861737 W
            Subthreshold Leakage with power gating = 0.0235019 W
            Gate Leakage = 0.000530726 W
            Runtime Dynamic = 0.0471102 W

      Renaming Unit:
        Area = 0.0885597 mm^2
        Peak Dynamic = 2.92993 W
        Subthreshold Leakage = 0.0187491 W
        Subthreshold Leakage with power gating = 0.009366 W
        Gate Leakage = 0.000274281 W
        Runtime Dynamic = 0.247226 W

          Int Front End RAT:
            Area = 0.0277132 mm^2
            Peak Dynamic = 0.487067 W
            Subthreshold Leakage = 0.00156023 W
            Subthreshold Leakage with power gating = 0.000889329 W
            Gate Leakage = 1.20209e-05 W
            Runtime Dynamic = 0.0346765 W

          FP Front End RAT:
            Area = 0.0402703 mm^2
            Peak Dynamic = 2.26672 W
            Subthreshold Leakage = 0.0126281 W
            Subthreshold Leakage with power gating = 0.00719803 W
            Gate Leakage = 0.000171325 W
            Runtime Dynamic = 0.206175 W

          Free List:
            Area = 0.00980768 mm^2
            Peak Dynamic = 0.0245223 W
            Subthreshold Leakage = 0.000150194 W
            Subthreshold Leakage with power gating = 7.5768e-05 W
            Gate Leakage = 1.08162e-06 W
            Runtime Dynamic = 0.00637426 W

      Load Store Unit:
        Area = 2.02906 mm^2
        Peak Dynamic = 1.83363 W
        Subthreshold Leakage = 0.150507 W
        Subthreshold Leakage with power gating = 0.0649054 W
        Gate Leakage = 0.00103703 W
        Runtime Dynamic = 0.641633 W

          Data Cache:
            Area = 1.62445 mm^2
            Peak Dynamic = 1.7475 W
            Subthreshold Leakage = 0.14014 W
            Subthreshold Leakage with power gating = 0.060307 W
            Gate Leakage = 0.000901876 W
            Runtime Dynamic = 0.545178 W

          LoadQ:
            Area = 0.0207189 mm^2
            Peak Dynamic = 0.027123 W
            Subthreshold Leakage = 0.00252286 W
            Subthreshold Leakage with power gating = 0.00143803 W
            Gate Leakage = 1.97785e-05 W
            Runtime Dynamic = 0.0271231 W

          StoreQ:
            Area = 0.0247255 mm^2
            Peak Dynamic = 0.0346658 W
            Subthreshold Leakage = 0.0034342 W
            Subthreshold Leakage with power gating = 0.0019575 W
            Gate Leakage = 2.55214e-05 W
            Runtime Dynamic = 0.0693318 W

      Memory Management Unit:
        Area = 0.0478667 mm^2
        Peak Dynamic = 0.134386 W
        Subthreshold Leakage = 0.010497 W
        Subthreshold Leakage with power gating = 0.00467217 W
        Gate Leakage = 0.000133538 W
        Runtime Dynamic = 0.0246375 W

          Itlb:
            Area = 0.0153187 mm^2
            Peak Dynamic = 0.0253856 W
            Subthreshold Leakage = 0.00236017 W
            Subthreshold Leakage with power gating = 0.0013453 W
            Gate Leakage = 1.72825e-05 W
            Runtime Dynamic = 0.00225523 W

          Dtlb:
            Area = 0.0217794 mm^2
            Peak Dynamic = 0.0210151 W
            Subthreshold Leakage = 0.00372634 W
            Subthreshold Leakage with power gating = 0.00212401 W
            Gate Leakage = 2.64018e-05 W
            Runtime Dynamic = 0.0223822 W

      Execution Unit:
        Area = 2.14962 mm^2
        Peak Dynamic = 4.07174 W
        Subthreshold Leakage = 0.277787 W
        Subthreshold Leakage with power gating = 0.0848929 W
        Gate Leakage = 0.00229396 W
        Runtime Dynamic = 1.61694 W

          Register Files:
            Area = 0.133129 mm^2
            Peak Dynamic = 0.0974182 W
            Subthreshold Leakage = 0.0028163 W
            Subthreshold Leakage with power gating = 0.000892763 W
            Gate Leakage = 2.138e-05 W
            Runtime Dynamic = 0.0280133 W

              Integer RF:
                Area = 0.0834736 mm^2
                Peak Dynamic = 0.0385133 W
                Subthreshold Leakage = 0.00172228 W
                Subthreshold Leakage with power gating = 0.000521558 W
                Gate Leakage = 1.3533e-05 W
                Runtime Dynamic = 0.0247564 W

              Floating Point RF:
                Area = 0.0496557 mm^2
                Peak Dynamic = 0.0589048 W
                Subthreshold Leakage = 0.00109402 W
                Subthreshold Leakage with power gating = 0.000371205 W
                Gate Leakage = 7.84697e-06 W
                Runtime Dynamic = 0.00325691 W

          Instruction Scheduler:
            Area = 0.53269 mm^2
            Peak Dynamic = 3.36823 W
            Subthreshold Leakage = 0.0327819 W
            Subthreshold Leakage with power gating = 0.0179486 W
            Gate Leakage = 0.000257818 W
            Runtime Dynamic = 0.351291 W

              Instruction Window:
                Area = 0.250713 mm^2
                Peak Dynamic = 1.44458 W
                Subthreshold Leakage = 0.0233811 W
                Subthreshold Leakage with power gating = 0.0133031 W
                Gate Leakage = 0.000189603 W
                Runtime Dynamic = 0.159802 W

              FP Instruction Window:
                Area = 0.0803106 mm^2
                Peak Dynamic = 0.848283 W
                Subthreshold Leakage = 0.00495177 W
                Subthreshold Leakage with power gating = 0.00279839 W
                Gate Leakage = 4.09447e-05 W
                Runtime Dynamic = 0.0933056 W

              ROB:
                Area = 0.201666 mm^2
                Peak Dynamic = 1.07537 W
                Subthreshold Leakage = 0.00444903 W
                Subthreshold Leakage with power gating = 0.00184714 W
                Gate Leakage = 2.72708e-05 W
                Runtime Dynamic = 0.0981832 W

          Integer ALUs (Count: 6 ):
            Area = 0.230726 mm^2
            Peak Dynamic = 0.0491414 W
            Subthreshold Leakage = 0.0781696 W
            Subthreshold Leakage with power gating = 0.021319 W
            Gate Leakage = 0.000632815 W
            Runtime Dynamic = 0.174296 W

          Floating Point Units (FPUs) (Count: 2 ):
            Area = 1.11344 mm^2
            Peak Dynamic = 0.387996 W
            Subthreshold Leakage = 0.0943076 W
            Subthreshold Leakage with power gating = 0.0257203 W
            Gate Leakage = 0.000763458 W
            Runtime Dynamic = 0.525744 W

          Complex ALUs (Mul/Div) (Count: 1 ):
            Area = 0.115363 mm^2
            Peak Dynamic = 0.0582582 W
            Subthreshold Leakage = 0.0390848 W
            Subthreshold Leakage with power gating = 0.0106595 W
            Gate Leakage = 0.000316407 W
            Runtime Dynamic = 0.284528 W

          Results Broadcast Bus:
            Area Overhead = 0.0135028 mm^2
            Peak Dynamic = 0.106754 W
            Subthreshold Leakage = 0.0262163 W
            Subthreshold Leakage with power gating = 0.0071499 W
            Gate Leakage = 0.000212232 W
            Runtime Dynamic = 0.253065 W

    L2
    Area = 1.08921 mm^2
    Peak Dynamic = 0.09472 W
    Subthreshold Leakage = 0.217129 W
    Subthreshold Leakage with power gating = 0.0858604 W
    Gate Leakage = 0.000539995 W
    Runtime Dynamic = 0.0619816 W

*****************************************************************************************
Core:
      Area = 8.83789 mm^2
      Peak Dynamic = 13.2862 W
      Subthreshold Leakage = 1.24068 W
      Subthreshold Leakage with power gating = 0.423947 W
      Gate Leakage = 0.00884884 W
      Runtime Dynamic = 3.64944 W

      Instruction Fetch Unit:
        Area = 1.27919 mm^2
        Peak Dynamic = 3.37163 W
        Subthreshold Leakage = 0.201057 W
        Subthreshold Leakage with power gating = 0.0747186 W
        Gate Leakage = 0.00161561 W
        Runtime Dynamic = 0.176882 W

          Instruction Cache:
            Area = 0.652161 mm^2
            Peak Dynamic = 2.19879 W
            Subthreshold Leakage = 0.0875977 W
            Subthreshold Leakage with power gating = 0.0398556 W
            Gate Leakage = 0.000896735 W
            Runtime Dynamic = 0.0745803 W

          Branch Target Buffer:
            Area = 0.153336 mm^2
            Peak Dynamic = 0.107627 W
            Subthreshold Leakage = 0.0179173 W
            Subthreshold Leakage with power gating = 0.00810978 W
            Gate Leakage = 7.44666e-05 W
            Runtime Dynamic = 0.000786782 W

          Branch Predictor:
            Area = 0.031053 mm^2
            Peak Dynamic = 0.0342172 W
            Subthreshold Leakage = 0.00458876 W
            Subthreshold Leakage with power gating = 0.00191983 W
            Gate Leakage = 2.16698e-05 W
            Runtime Dynamic = 0.000691026 W

              Global Predictor:
                Area = 0.00995681 mm^2
                Peak Dynamic = 0.00950852 W
                Subthreshold Leakage = 0.00172478 W
                Subthreshold Leakage with power gating = 0.000723306 W
                Gate Leakage = 7.8416e-06 W
                Runtime Dynamic = 7.84115e-05 W

              Local Predictor:
              L1_Local Predictor:
                Area = 0.00570481 mm^2
                Peak Dynamic = 0.00802062 W
                Subthreshold Leakage = 0.000876881 W
                Subthreshold Leakage with power gating = 0.000367388 W
                Gate Leakage = 4.43463e-06 W
                Runtime Dynamic = 6.90481e-05 W

              L2_Local Predictor:
                Area = 0.00289767 mm^2
                Peak Dynamic = 0.00398848 W
                Subthreshold Leakage = 0.00048391 W
                Subthreshold Leakage with power gating = 0.000197984 W
                Gate Leakage = 2.7078e-06 W
                Runtime Dynamic = 3.4336e-05 W

              Chooser:
                Area = 0.00995681 mm^2
                Peak Dynamic = 0.00950852 W
                Subthreshold Leakage = 0.00172478 W
                Subthreshold Leakage with power gating = 0.000723306 W
                Gate Leakage = 7.8416e-06 W
                Runtime Dynamic = 7.84115e-05 W

              RAS:
                Area = 0.00253692 mm^2
                Peak Dynamic = 0.00717956 W
                Subthreshold Leakage = 0.000262308 W
                Subthreshold Leakage with power gating = 0.000105831 W
                Gate Leakage = 1.552e-06 W
                Runtime Dynamic = 0.000465155 W

          Instruction Buffer:
            Area = 0.00457032 mm^2
            Peak Dynamic = 0.399167 W
            Subthreshold Leakage = 0.000368864 W
            Subthreshold Leakage with power gating = 0.00012853 W
            Gate Leakage = 2.16072e-06 W
            Runtime Dynamic = 0.0325731 W

          Instruction Decoder:
            Area = 0.427303 mm^2
            Peak Dynamic = 0.557586 W
            Subthreshold Leakage = 0.0861737 W
            Subthreshold Leakage with power gating = 0.0235019 W
            Gate Leakage = 0.000530726 W
            Runtime Dynamic = 0.0682508 W

      Renaming Unit:
        Area = 0.0885597 mm^2
        Peak Dynamic = 2.92993 W
        Subthreshold Leakage = 0.0187491 W
        Subthreshold Leakage with power gating = 0.009366 W
        Gate Leakage = 0.000274281 W
        Runtime Dynamic = 0.345396 W

          Int Front End RAT:
            Area = 0.0277132 mm^2
            Peak Dynamic = 0.487067 W
            Subthreshold Leakage = 0.00156023 W
            Subthreshold Leakage with power gating = 0.000889329 W
            Gate Leakage = 1.20209e-05 W
            Runtime Dynamic = 0.0506138 W

          FP Front End RAT:
            Area = 0.0402703 mm^2
            Peak Dynamic = 2.26672 W
            Subthreshold Leakage = 0.0126281 W
            Subthreshold Leakage with power gating = 0.00719803 W
            Gate Leakage = 0.000171325 W
            Runtime Dynamic = 0.285689 W

          Free List:
            Area = 0.00980768 mm^2
            Peak Dynamic = 0.0245223 W
            Subthreshold Leakage = 0.000150194 W
            Subthreshold Leakage with power gating = 7.5768e-05 W
            Gate Leakage = 1.08162e-06 W
            Runtime Dynamic = 0.00909397 W

      Load Store Unit:
        Area = 2.02906 mm^2
        Peak Dynamic = 2.30742 W
        Subthreshold Leakage = 0.150507 W
        Subthreshold Leakage with power gating = 0.0649054 W
        Gate Leakage = 0.00103703 W
        Runtime Dynamic = 0.986626 W

          Data Cache:
            Area = 1.62445 mm^2
            Peak Dynamic = 2.17838 W
            Subthreshold Leakage = 0.14014 W
            Subthreshold Leakage with power gating = 0.060307 W
            Gate Leakage = 0.000901876 W
            Runtime Dynamic = 0.842114 W

          LoadQ:
            Area = 0.0207189 mm^2
            Peak Dynamic = 0.0406366 W
            Subthreshold Leakage = 0.00252286 W
            Subthreshold Leakage with power gating = 0.00143803 W
            Gate Leakage = 1.97785e-05 W
            Runtime Dynamic = 0.0406366 W

          StoreQ:
            Area = 0.0247255 mm^2
            Peak Dynamic = 0.0519375 W
            Subthreshold Leakage = 0.0034342 W
            Subthreshold Leakage with power gating = 0.0019575 W
            Gate Leakage = 2.55214e-05 W
            Runtime Dynamic = 0.103875 W

      Memory Management Unit:
        Area = 0.0478667 mm^2
        Peak Dynamic = 0.162312 W
        Subthreshold Leakage = 0.010497 W
        Subthreshold Leakage with power gating = 0.00467217 W
        Gate Leakage = 0.000133538 W
        Runtime Dynamic = 0.0371183 W

          Itlb:
            Area = 0.0153187 mm^2
            Peak Dynamic = 0.0367773 W
            Subthreshold Leakage = 0.00236017 W
            Subthreshold Leakage with power gating = 0.0013453 W
            Gate Leakage = 1.72825e-05 W
            Runtime Dynamic = 0.00333384 W

          Dtlb:
            Area = 0.0217794 mm^2
            Peak Dynamic = 0.0314855 W
            Subthreshold Leakage = 0.00372634 W
            Subthreshold Leakage with power gating = 0.00212401 W
            Gate Leakage = 2.64018e-05 W
            Runtime Dynamic = 0.0337844 W

      Execution Unit:
        Area = 2.14962 mm^2
        Peak Dynamic = 4.35555 W
        Subthreshold Leakage = 0.277787 W
        Subthreshold Leakage with power gating = 0.0848929 W
        Gate Leakage = 0.00229396 W
        Runtime Dynamic = 1.99918 W

          Register Files:
            Area = 0.133129 mm^2
            Peak Dynamic = 0.136513 W
            Subthreshold Leakage = 0.0028163 W
            Subthreshold Leakage with power gating = 0.000892763 W
            Gate Leakage = 2.138e-05 W
            Runtime Dynamic = 0.0405842 W

              Integer RF:
                Area = 0.0834736 mm^2
                Peak Dynamic = 0.0548913 W
                Subthreshold Leakage = 0.00172228 W
                Subthreshold Leakage with power gating = 0.000521558 W
                Gate Leakage = 1.3533e-05 W
                Runtime Dynamic = 0.0358658 W

              Floating Point RF:
                Area = 0.0496557 mm^2
                Peak Dynamic = 0.081622 W
                Subthreshold Leakage = 0.00109402 W
                Subthreshold Leakage with power gating = 0.000371205 W
                Gate Leakage = 7.84697e-06 W
                Runtime Dynamic = 0.00471844 W

          Instruction Scheduler:
            Area = 0.53269 mm^2
            Peak Dynamic = 3.36823 W
            Subthreshold Leakage = 0.0327819 W
            Subthreshold Leakage with power gating = 0.0179486 W
            Gate Leakage = 0.000257818 W
            Runtime Dynamic = 0.508468 W

              Instruction Window:
                Area = 0.250713 mm^2
                Peak Dynamic = 1.44458 W
                Subthreshold Leakage = 0.0233811 W
                Subthreshold Leakage with power gating = 0.0133031 W
                Gate Leakage = 0.000189603 W
                Runtime Dynamic = 0.231512 W

              FP Instruction Window:
                Area = 0.0803106 mm^2
                Peak Dynamic = 0.848283 W
                Subthreshold Leakage = 0.00495177 W
                Subthreshold Leakage with power gating = 0.00279839 W
                Gate Leakage = 4.09447e-05 W
                Runtime Dynamic = 0.135176 W

              ROB:
                Area = 0.201666 mm^2
                Peak Dynamic = 1.07537 W
                Subthreshold Leakage = 0.00444903 W
                Subthreshold Leakage with power gating = 0.00184714 W
                Gate Leakage = 2.72708e-05 W
                Runtime Dynamic = 0.14178 W

          Integer ALUs (Count: 6 ):
            Area = 0.230726 mm^2
            Peak Dynamic = 0.074809 W
            Subthreshold Leakage = 0.0781696 W
            Subthreshold Leakage with power gating = 0.021319 W
            Gate Leakage = 0.000632815 W
            Runtime Dynamic = 0.20061 W

          Floating Point Units (FPUs) (Count: 2 ):
            Area = 1.11344 mm^2
            Peak Dynamic = 0.537629 W
            Subthreshold Leakage = 0.0943076 W
            Subthreshold Leakage with power gating = 0.0257203 W
            Gate Leakage = 0.000763458 W
            Runtime Dynamic = 0.587759 W

          Complex ALUs (Mul/Div) (Count: 1 ):
            Area = 0.115363 mm^2
            Peak Dynamic = 0.0807207 W
            Subthreshold Leakage = 0.0390848 W
            Subthreshold Leakage with power gating = 0.0106595 W
            Gate Leakage = 0.000316407 W
            Runtime Dynamic = 0.300427 W

          Results Broadcast Bus:
            Area Overhead = 0.0135028 mm^2
            Peak Dynamic = 0.151637 W
            Subthreshold Leakage = 0.0262163 W
            Subthreshold Leakage with power gating = 0.0071499 W
            Gate Leakage = 0.000212232 W
            Runtime Dynamic = 0.361328 W

    L2
    Area = 1.08921 mm^2
    Peak Dynamic = 0.159339 W
    Subthreshold Leakage = 0.217129 W
    Subthreshold Leakage with power gating = 0.0858604 W
    Gate Leakage = 0.000539995 W
    Runtime Dynamic = 0.104238 W

*****************************************************************************************
Core:
      Area = 8.83789 mm^2
      Peak Dynamic = 11.0467 W
      Subthreshold Leakage = 1.24068 W
      Subthreshold Leakage with power gating = 0.423947 W
      Gate Leakage = 0.00884884 W
      Runtime Dynamic = 2.31074 W

      Instruction Fetch Unit:
        Area = 1.27919 mm^2
        Peak Dynamic = 2.3491 W
        Subthreshold Leakage = 0.201057 W
        Subthreshold Leakage with power gating = 0.0747186 W
        Gate Leakage = 0.00161561 W
        Runtime Dynamic = 0.0962799 W

          Instruction Cache:
            Area = 0.652161 mm^2
            Peak Dynamic = 1.20966 W
            Subthreshold Leakage = 0.0875977 W
            Subthreshold Leakage with power gating = 0.0398556 W
            Gate Leakage = 0.000896735 W
            Runtime Dynamic = 0.0400489 W

          Branch Target Buffer:
            Area = 0.153336 mm^2
            Peak Dynamic = 0.107627 W
            Subthreshold Leakage = 0.0179173 W
            Subthreshold Leakage with power gating = 0.00810978 W
            Gate Leakage = 7.44666e-05 W
            Runtime Dynamic = 0.000395379 W

          Branch Predictor:
            Area = 0.031053 mm^2
            Peak Dynamic = 0.0342172 W
            Subthreshold Leakage = 0.00458876 W
            Subthreshold Leakage with power gating = 0.00191983 W
            Gate Leakage = 2.16698e-05 W
            Runtime Dynamic = 0.000367577 W

              Global Predictor:
                Area = 0.00995681 mm^2
                Peak Dynamic = 0.00950852 W
                Subthreshold Leakage = 0.00172478 W
                Subthreshold Leakage with power gating = 0.000723306 W
                Gate Leakage = 7.8416e-06 W
                Runtime Dynamic = 3.88265e-05 W

              Local Predictor:
              L1_Local Predictor:
                Area = 0.00570481 mm^2
                Peak Dynamic = 0.00802062 W
                Subthreshold Leakage = 0.000876881 W
                Subthreshold Leakage with power gating = 0.000367388 W
                Gate Leakage = 4.43463e-06 W
                Runtime Dynamic = 3.4023e-05 W

              L2_Local Predictor:
                Area = 0.00289767 mm^2
                Peak Dynamic = 0.00398848 W
                Subthreshold Leakage = 0.00048391 W
                Subthreshold Leakage with power gating = 0.000197984 W
                Gate Leakage = 2.7078e-06 W
                Runtime Dynamic = 1.69188e-05 W

              Chooser:
                Area = 0.00995681 mm^2
                Peak Dynamic = 0.00950852 W
                Subthreshold Leakage = 0.00172478 W
                Subthreshold Leakage with power gating = 0.000723306 W
                Gate Leakage = 7.8416e-06 W
                Runtime Dynamic = 3.88265e-05 W

              RAS:
                Area = 0.00253692 mm^2
                Peak Dynamic = 0.00717956 W
                Subthreshold Leakage = 0.000262308 W
                Subthreshold Leakage with power gating = 0.000105831 W
                Gate Leakage = 1.552e-06 W
                Runtime Dynamic = 0.000255901 W

          Instruction Buffer:
            Area = 0.00457032 mm^2
            Peak Dynamic = 0.399167 W
            Subthreshold Leakage = 0.000368864 W
            Subthreshold Leakage with power gating = 0.00012853 W
            Gate Leakage = 2.16072e-06 W
            Runtime Dynamic = 0.01792 W

          Instruction Decoder:
            Area = 0.427303 mm^2
            Peak Dynamic = 0.557586 W
            Subthreshold Leakage = 0.0861737 W
            Subthreshold Leakage with power gating = 0.0235019 W
            Gate Leakage = 0.000530726 W
            Runtime Dynamic = 0.037548 W

      Renaming Unit:
        Area = 0.0885597 mm^2
        Peak Dynamic = 2.92993 W
        Subthreshold Leakage = 0.0187491 W
        Subthreshold Leakage with power gating = 0.009366 W
        Gate Leakage = 0.000274281 W
        Runtime Dynamic = 0.197004 W

          Int Front End RAT:
            Area = 0.0277132 mm^2
            Peak Dynamic = 0.487067 W
            Subthreshold Leakage = 0.00156023 W
            Subthreshold Leakage with power gating = 0.000889329 W
            Gate Leakage = 1.20209e-05 W
            Runtime Dynamic = 0.0276392 W

          FP Front End RAT:
            Area = 0.0402703 mm^2
            Peak Dynamic = 2.26672 W
            Subthreshold Leakage = 0.0126281 W
            Subthreshold Leakage with power gating = 0.00719803 W
            Gate Leakage = 0.000171325 W
            Runtime Dynamic = 0.164285 W

          Free List:
            Area = 0.00980768 mm^2
            Peak Dynamic = 0.0245223 W
            Subthreshold Leakage = 0.000150194 W
            Subthreshold Leakage with power gating = 7.5768e-05 W
            Gate Leakage = 1.08162e-06 W
            Runtime Dynamic = 0.00507998 W

      Load Store Unit:
        Area = 2.02906 mm^2
        Peak Dynamic = 1.64073 W
        Subthreshold Leakage = 0.150507 W
        Subthreshold Leakage with power gating = 0.0649054 W
        Gate Leakage = 0.00103703 W
        Runtime Dynamic = 0.511552 W

          Data Cache:
            Area = 1.62445 mm^2
            Peak Dynamic = 1.57207 W
            Subthreshold Leakage = 0.14014 W
            Subthreshold Leakage with power gating = 0.060307 W
            Gate Leakage = 0.000901876 W
            Runtime Dynamic = 0.434663 W

          LoadQ:
            Area = 0.0207189 mm^2
            Peak Dynamic = 0.0216211 W
            Subthreshold Leakage = 0.00252286 W
            Subthreshold Leakage with power gating = 0.00143803 W
            Gate Leakage = 1.97785e-05 W
            Runtime Dynamic = 0.0216211 W

          StoreQ:
            Area = 0.0247255 mm^2
            Peak Dynamic = 0.0276338 W
            Subthreshold Leakage = 0.0034342 W
            Subthreshold Leakage with power gating = 0.0019575 W
            Gate Leakage = 2.55214e-05 W
            Runtime Dynamic = 0.0552677 W

      Memory Management Unit:
        Area = 0.0478667 mm^2
        Peak Dynamic = 0.122501 W
        Subthreshold Leakage = 0.010497 W
        Subthreshold Leakage with power gating = 0.00467217 W
        Gate Leakage = 0.000133538 W
        Runtime Dynamic = 0.0196404 W

          Itlb:
            Area = 0.0153187 mm^2
            Peak Dynamic = 0.020233 W
            Subthreshold Leakage = 0.00236017 W
            Subthreshold Leakage with power gating = 0.0013453 W
            Gate Leakage = 1.72825e-05 W
            Runtime Dynamic = 0.00179762 W

          Dtlb:
            Area = 0.0217794 mm^2
            Peak Dynamic = 0.0167521 W
            Subthreshold Leakage = 0.00372634 W
            Subthreshold Leakage with power gating = 0.00212401 W
            Gate Leakage = 2.64018e-05 W
            Runtime Dynamic = 0.0178427 W

      Execution Unit:
        Area = 2.14962 mm^2
        Peak Dynamic = 3.92884 W
        Subthreshold Leakage = 0.277787 W
        Subthreshold Leakage with power gating = 0.0848929 W
        Gate Leakage = 0.00229396 W
        Runtime Dynamic = 1.43683 W

          Register Files:
            Area = 0.133129 mm^2
            Peak Dynamic = 0.0776285 W
            Subthreshold Leakage = 0.0028163 W
            Subthreshold Leakage with power gating = 0.000892763 W
            Gate Leakage = 2.138e-05 W
            Runtime Dynamic = 0.0223273 W

              Integer RF:
                Area = 0.0834736 mm^2
                Peak Dynamic = 0.0306918 W
                Subthreshold Leakage = 0.00172228 W
                Subthreshold Leakage with power gating = 0.000521558 W
                Gate Leakage = 1.3533e-05 W
                Runtime Dynamic = 0.0197315 W

              Floating Point RF:
                Area = 0.0496557 mm^2
                Peak Dynamic = 0.0469367 W
                Subthreshold Leakage = 0.00109402 W
                Subthreshold Leakage with power gating = 0.000371205 W
                Gate Leakage = 7.84697e-06 W
                Runtime Dynamic = 0.00259583 W

          Instruction Scheduler:
            Area = 0.53269 mm^2
            Peak Dynamic = 3.36823 W
            Subthreshold Leakage = 0.0327819 W
            Subthreshold Leakage with power gating = 0.0179486 W
            Gate Leakage = 0.000257818 W
            Runtime Dynamic = 0.279984 W

              Instruction Window:
                Area = 0.250713 mm^2
                Peak Dynamic = 1.44458 W
                Subthreshold Leakage = 0.0233811 W
                Subthreshold Leakage with power gating = 0.0133031 W
                Gate Leakage = 0.000189603 W
                Runtime Dynamic = 0.127366 W

              FP Instruction Window:
                Area = 0.0803106 mm^2
                Peak Dynamic = 0.848283 W
                Subthreshold Leakage = 0.00495177 W
                Subthreshold Leakage with power gating = 0.00279839 W
                Gate Leakage = 4.09447e-05 W
                Runtime Dynamic = 0.0743667 W

              ROB:
                Area = 0.201666 mm^2
                Peak Dynamic = 1.07537 W
                Subthreshold Leakage = 0.00444903 W
                Subthreshold Leakage with power gating = 0.00184714 W
                Gate Leakage = 2.72708e-05 W
                Runtime Dynamic = 0.0782519 W

          Integer ALUs (Count: 6 ):
            Area = 0.230726 mm^2
            Peak Dynamic = 0.0391779 W
            Subthreshold Leakage = 0.0781696 W
            Subthreshold Leakage with power gating = 0.021319 W
            Gate Leakage = 0.000632815 W
            Runtime Dynamic = 0.163617 W

          Floating Point Units (FPUs) (Count: 2 ):
            Area = 1.11344 mm^2
            Peak Dynamic = 0.309164 W
            Subthreshold Leakage = 0.0943076 W
            Subthreshold Leakage with power gating = 0.0257203 W
            Gate Leakage = 0.000763458 W
            Runtime Dynamic = 0.493072 W

          Complex ALUs (Mul/Div) (Count: 1 ):
            Area = 0.115363 mm^2
            Peak Dynamic = 0.0464187 W
            Subthreshold Leakage = 0.0390848 W
            Subthreshold Leakage with power gating = 0.0106595 W
            Gate Leakage = 0.000316407 W
            Runtime Dynamic = 0.276148 W

          Results Broadcast Bus:
            Area Overhead = 0.0135028 mm^2
            Peak Dynamic = 0.0850717 W
            Subthreshold Leakage = 0.0262163 W
            Subthreshold Leakage with power gating = 0.0071499 W
            Gate Leakage = 0.000212232 W
            Runtime Dynamic = 0.201678 W

    L2
    Area = 1.08921 mm^2
    Peak Dynamic = 0.0755491 W
    Subthreshold Leakage = 0.217129 W
    Subthreshold Leakage with power gating = 0.0858604 W
    Gate Leakage = 0.000539995 W
    Runtime Dynamic = 0.049441 W

*****************************************************************************************
Core:
      Area = 8.83789 mm^2
      Peak Dynamic = 8.35527 W
      Subthreshold Leakage = 1.24068 W
      Subthreshold Leakage with power gating = 0.423947 W
      Gate Leakage = 0.00884884 W
      Runtime Dynamic = 0.72988 W

      Instruction Fetch Unit:
        Area = 1.27919 mm^2
        Peak Dynamic = 1.0986 W
        Subthreshold Leakage = 0.201057 W
        Subthreshold Leakage with power gating = 0.0747186 W
        Gate Leakage = 0.00161561 W
        Runtime Dynamic = 4.21188e-08 W

          Instruction Cache:
            Area = 0.652161 mm^2
            Peak Dynamic = 0 W
            Subthreshold Leakage = 0.0875977 W
            Subthreshold Leakage with power gating = 0.0398556 W
            Gate Leakage = 0.000896735 W
            Runtime Dynamic = 0 W

          Branch Target Buffer:
            Area = 0.153336 mm^2
            Peak Dynamic = 0.107627 W
            Subthreshold Leakage = 0.0179173 W
            Subthreshold Leakage with power gating = 0.00810978 W
            Gate Leakage = 7.44666e-05 W
            Runtime Dynamic = 0 W

          Branch Predictor:
            Area = 0.031053 mm^2
            Peak Dynamic = 0.0342172 W
            Subthreshold Leakage = 0.00458876 W
            Subthreshold Leakage with power gating = 0.00191983 W
            Gate Leakage = 2.16698e-05 W
            Runtime Dynamic = 0 W

              Global Predictor:
                Area = 0.00995681 mm^2
                Peak Dynamic = 0.00950852 W
                Subthreshold Leakage = 0.00172478 W
                Subthreshold Leakage with power gating = 0.000723306 W
                Gate Leakage = 7.8416e-06 W
                Runtime Dynamic = 0 W

              Local Predictor:
              L1_Local Predictor:
                Area = 0.00570481 mm^2
                Peak Dynamic = 0.00802062 W
                Subthreshold Leakage = 0.000876881 W
                Subthreshold Leakage with power gating = 0.000367388 W
                Gate Leakage = 4.43463e-06 W
                Runtime Dynamic = 0 W

              L2_Local Predictor:
                Area = 0.00289767 mm^2
                Peak Dynamic = 0.00398848 W
                Subthreshold Leakage = 0.00048391 W
                Subthreshold Leakage with power gating = 0.000197984 W
                Gate Leakage = 2.7078e-06 W
                Runtime Dynamic = 0 W

              Chooser:
                Area = 0.00995681 mm^2
                Peak Dynamic = 0.00950852 W
                Subthreshold Leakage = 0.00172478 W
                Subthreshold Leakage with power gating = 0.000723306 W
                Gate Leakage = 7.8416e-06 W
                Runtime Dynamic = 0 W

              RAS:
                Area = 0.00253692 mm^2
                Peak Dynamic = 0.00717956 W
                Subthreshold Leakage = 0.000262308 W
                Subthreshold Leakage with power gating = 0.000105831 W
                Gate Leakage = 1.552e-06 W
                Runtime Dynamic = 0 W

          Instruction Buffer:
            Area = 0.00457032 mm^2
            Peak Dynamic = 0.399167 W
            Subthreshold Leakage = 0.000368864 W
            Subthreshold Leakage with power gating = 0.00012853 W
            Gate Leakage = 2.16072e-06 W
            Runtime Dynamic = 0 W

          Instruction Decoder:
            Area = 0.427303 mm^2
            Peak Dynamic = 0.557586 W
            Subthreshold Leakage = 0.0861737 W
            Subthreshold Leakage with power gating = 0.0235019 W
            Gate Leakage = 0.000530726 W
            Runtime Dynamic = 0 W

      Renaming Unit:
        Area = 0.0885597 mm^2
        Peak Dynamic = 2.92993 W
        Subthreshold Leakage = 0.0187491 W
        Subthreshold Leakage with power gating = 0.009366 W
        Gate Leakage = 0.000274281 W
        Runtime Dynamic = 4.21188e-08 W

          Int Front End RAT:
            Area = 0.0277132 mm^2
            Peak Dynamic = 0.487067 W
            Subthreshold Leakage = 0.00156023 W
            Subthreshold Leakage with power gating = 0.000889329 W
            Gate Leakage = 1.20209e-05 W
            Runtime Dynamic = 0 W

          FP Front End RAT:
            Area = 0.0402703 mm^2
            Peak Dynamic = 2.26672 W
            Subthreshold Leakage = 0.0126281 W
            Subthreshold Leakage with power gating = 0.00719803 W
            Gate Leakage = 0.000171325 W
            Runtime Dynamic = 0 W

          Free List:
            Area = 0.00980768 mm^2
            Peak Dynamic = 0.0245223 W
            Subthreshold Leakage = 0.000150194 W
            Subthreshold Leakage with power gating = 7.5768e-05 W
            Gate Leakage = 1.08162e-06 W
            Runtime Dynamic = 0 W

      Load Store Unit:
        Area = 2.02906 mm^2
        Peak Dynamic = 0.882694 W
        Subthreshold Leakage = 0.150507 W
        Subthreshold Leakage with power gating = 0.0649054 W
        Gate Leakage = 0.00103703 W
        Runtime Dynamic = 4.21188e-08 W

          Data Cache:
            Area = 1.62445 mm^2
            Peak Dynamic = 0.882694 W
            Subthreshold Leakage = 0.14014 W
            Subthreshold Leakage with power gating = 0.060307 W
            Gate Leakage = 0.000901876 W
            Runtime Dynamic = 0 W

          LoadQ:
            Area = 0.0207189 mm^2
            Peak Dynamic = 0 W
            Subthreshold Leakage = 0.00252286 W
            Subthreshold Leakage with power gating = 0.00143803 W
            Gate Leakage = 1.97785e-05 W
            Runtime Dynamic = 0 W

          StoreQ:
            Area = 0.0247255 mm^2
            Peak Dynamic = 0 W
            Subthreshold Leakage = 0.0034342 W
            Subthreshold Leakage with power gating = 0.0019575 W
            Gate Leakage = 2.55214e-05 W
            Runtime Dynamic = 0 W

      Memory Management Unit:
        Area = 0.0478667 mm^2
        Peak Dynamic = 0.0758138 W
        Subthreshold Leakage = 0.010497 W
        Subthreshold Leakage with power gating = 0.00467217 W
        Gate Leakage = 0.000133538 W
        Runtime Dynamic = 4.21188e-08 W

          Itlb:
            Area = 0.0153187 mm^2
            Peak Dynamic = 0 W
            Subthreshold Leakage = 0.00236017 W
            Subthreshold Leakage with power gating = 0.0013453 W
            Gate Leakage = 1.72825e-05 W
            Runtime Dynamic = 0 W

          Dtlb:
            Area = 0.0217794 mm^2
            Peak Dynamic = 0 W
            Subthreshold Leakage = 0.00372634 W
            Subthreshold Leakage with power gating = 0.00212401 W
            Gate Leakage = 2.64018e-05 W
            Runtime Dynamic = 0 W

      Execution Unit:
        Area = 2.14962 mm^2
        Peak Dynamic = 3.36823 W
        Subthreshold Leakage = 0.277787 W
        Subthreshold Leakage with power gating = 0.0848929 W
        Gate Leakage = 0.00229396 W
        Runtime Dynamic = 0.72988 W

          Register Files:
            Area = 0.133129 mm^2
            Peak Dynamic = 0 W
            Subthreshold Leakage = 0.0028163 W
            Subthreshold Leakage with power gating = 0.000892763 W
            Gate Leakage = 2.138e-05 W
            Runtime Dynamic = 0 W

              Integer RF:
                Area = 0.0834736 mm^2
                Peak Dynamic = 0 W
                Subthreshold Leakage = 0.00172228 W
                Subthreshold Leakage with power gating = 0.000521558 W
                Gate Leakage = 1.3533e-05 W
                Runtime Dynamic = 0 W

              Floating Point RF:
                Area = 0.0496557 mm^2
                Peak Dynamic = 0 W
                Subthreshold Leakage = 0.00109402 W
                Subthreshold Leakage with power gating = 0.000371205 W
                Gate Leakage = 7.84697e-06 W
                Runtime Dynamic = 0 W

          Instruction Scheduler:
            Area = 0.53269 mm^2
            Peak Dynamic = 3.36823 W
            Subthreshold Leakage = 0.0327819 W
            Subthreshold Leakage with power gating = 0.0179486 W
            Gate Leakage = 0.000257818 W
            Runtime Dynamic = 0 W

              Instruction Window:
                Area = 0.250713 mm^2
                Peak Dynamic = 1.44458 W
                Subthreshold Leakage = 0.0233811 W
                Subthreshold Leakage with power gating = 0.0133031 W
                Gate Leakage = 0.000189603 W
                Runtime Dynamic = 0 W

              FP Instruction Window:
                Area = 0.0803106 mm^2
                Peak Dynamic = 0.848283 W
                Subthreshold Leakage = 0.00495177 W
                Subthreshold Leakage with power gating = 0.00279839 W
                Gate Leakage = 4.09447e-05 W
                Runtime Dynamic = 0 W

              ROB:
                Area = 0.201666 mm^2
                Peak Dynamic = 1.07537 W
                Subthreshold Leakage = 0.00444903 W
                Subthreshold Leakage with power gating = 0.00184714 W
                Gate Leakage = 2.72708e-05 W
                Runtime Dynamic = 0 W

          Integer ALUs (Count: 6 ):
            Area = 0.230726 mm^2
            Peak Dynamic = 0 W
            Subthreshold Leakage = 0.0781696 W
            Subthreshold Leakage with power gating = 0.021319 W
            Gate Leakage = 0.000632815 W
            Runtime Dynamic = 0.121647 W

          Floating Point Units (FPUs) (Count: 2 ):
            Area = 1.11344 mm^2
            Peak Dynamic = 0 W
            Subthreshold Leakage = 0.0943076 W
            Subthreshold Leakage with power gating = 0.0257203 W
            Gate Leakage = 0.000763458 W
            Runtime Dynamic = 0.36494 W

          Complex ALUs (Mul/Div) (Count: 1 ):
            Area = 0.115363 mm^2
            Peak Dynamic = 0 W
            Subthreshold Leakage = 0.0390848 W
            Subthreshold Leakage with power gating = 0.0106595 W
            Gate Leakage = 0.000316407 W
            Runtime Dynamic = 0.243293 W

          Results Broadcast Bus:
            Area Overhead = 0.0135028 mm^2
            Peak Dynamic = 0 W
            Subthreshold Leakage = 0.0262163 W
            Subthreshold Leakage with power gating = 0.0071499 W
            Gate Leakage = 0.000212232 W
            Runtime Dynamic = 0 W

    L2
    Area = 1.08921 mm^2
    Peak Dynamic = 0 W
    Subthreshold Leakage = 0.217129 W
    Subthreshold Leakage with power gating = 0.0858604 W
    Gate Leakage = 0.000539995 W
    Runtime Dynamic = 3.9683e-07 W

*****************************************************************************************
Core:
      Area = 8.83789 mm^2
      Peak Dynamic = 11.0303 W
      Subthreshold Leakage = 1.24068 W
      Subthreshold Leakage with power gating = 0.423947 W
      Gate Leakage = 0.00884884 W
      Runtime Dynamic = 2.30102 W

      Instruction Fetch Unit:
        Area = 1.27919 mm^2
        Peak Dynamic = 2.34155 W
        Subthreshold Leakage = 0.201057 W
        Subthreshold Leakage with power gating = 0.0747186 W
        Gate Leakage = 0.00161561 W
        Runtime Dynamic = 0.0957125 W

          Instruction Cache:
            Area = 0.652161 mm^2
            Peak Dynamic = 1.20236 W
            Subthreshold Leakage = 0.0875977 W
            Subthreshold Leakage with power gating = 0.0398556 W
            Gate Leakage = 0.000896735 W
            Runtime Dynamic = 0.0398211 W

          Branch Target Buffer:
            Area = 0.153336 mm^2
            Peak Dynamic = 0.107627 W
            Subthreshold Leakage = 0.0179173 W
            Subthreshold Leakage with power gating = 0.00810978 W
            Gate Leakage = 7.44666e-05 W
            Runtime Dynamic = 0.000392688 W

          Branch Predictor:
            Area = 0.031053 mm^2
            Peak Dynamic = 0.0342172 W
            Subthreshold Leakage = 0.00458876 W
            Subthreshold Leakage with power gating = 0.00191983 W
            Gate Leakage = 2.16698e-05 W
            Runtime Dynamic = 0.000365234 W

              Global Predictor:
                Area = 0.00995681 mm^2
                Peak Dynamic = 0.00950852 W
                Subthreshold Leakage = 0.00172478 W
                Subthreshold Leakage with power gating = 0.000723306 W
                Gate Leakage = 7.8416e-06 W
                Runtime Dynamic = 3.85489e-05 W

              Local Predictor:
              L1_Local Predictor:
                Area = 0.00570481 mm^2
                Peak Dynamic = 0.00802062 W
                Subthreshold Leakage = 0.000876881 W
                Subthreshold Leakage with power gating = 0.000367388 W
                Gate Leakage = 4.43463e-06 W
                Runtime Dynamic = 3.37758e-05 W

              L2_Local Predictor:
                Area = 0.00289767 mm^2
                Peak Dynamic = 0.00398848 W
                Subthreshold Leakage = 0.00048391 W
                Subthreshold Leakage with power gating = 0.000197984 W
                Gate Leakage = 2.7078e-06 W
                Runtime Dynamic = 1.67959e-05 W

              Chooser:
                Area = 0.00995681 mm^2
                Peak Dynamic = 0.00950852 W
                Subthreshold Leakage = 0.00172478 W
                Subthreshold Leakage with power gating = 0.000723306 W
                Gate Leakage = 7.8416e-06 W
                Runtime Dynamic = 3.85489e-05 W

              RAS:
                Area = 0.00253692 mm^2
                Peak Dynamic = 0.00717956 W
                Subthreshold Leakage = 0.000262308 W
                Subthreshold Leakage with power gating = 0.000105831 W
                Gate Leakage = 1.552e-06 W
                Runtime Dynamic = 0.00025436 W

          Instruction Buffer:
            Area = 0.00457032 mm^2
            Peak Dynamic = 0.399167 W
            Subthreshold Leakage = 0.000368864 W
            Subthreshold Leakage with power gating = 0.00012853 W
            Gate Leakage = 2.16072e-06 W
[...]
        Subthreshold Leakage with power gating = 0.0848929 W
        Gate Leakage = 0.00229396 W
        Runtime Dynamic = 0.72988 W

          Register Files:
            Area = 0.133129 mm^2
            Peak Dynamic = 0 W
            Subthreshold Leakage = 0.0028163 W
            Subthreshold Leakage with power gating = 0.000892763 W
            Gate Leakage = 2.138e-05 W
            Runtime Dynamic = 0 W

              Integer RF:
                Area = 0.0834736 mm^2
                Peak Dynamic = 0 W
                Subthreshold Leakage = 0.00172228 W
                Subthreshold Leakage with power gating = 0.000521558 W
                Gate Leakage = 1.3533e-05 W
                Runtime Dynamic = 0 W

              Floating Point RF:
                Area = 0.0496557 mm^2
                Peak Dynamic = 0 W
                Subthreshold Leakage = 0.00109402 W
                Subthreshold Leakage with power gating = 0.000371205 W
                Gate Leakage = 7.84697e-06 W
                Runtime Dynamic = 0 W

          Instruction Scheduler:
            Area = 0.53269 mm^2
            Peak Dynamic = 3.36823 W
            Subthreshold Leakage = 0.0327819 W
            Subthreshold Leakage with power gating = 0.0179486 W
            Gate Leakage = 0.000257818 W
            Runtime Dynamic = 0 W

              Instruction Window:
                Area = 0.250713 mm^2
                Peak Dynamic = 1.44458 W
                Subthreshold Leakage = 0.0233811 W
                Subthreshold Leakage with power gating = 0.0133031 W
                Gate Leakage = 0.000189603 W
                Runtime Dynamic = 0 W

              FP Instruction Window:
                Area = 0.0803106 mm^2
                Peak Dynamic = 0.848283 W
                Subthreshold Leakage = 0.00495177 W
                Subthreshold Leakage with power gating = 0.00279839 W
                Gate Leakage = 4.09447e-05 W
                Runtime Dynamic = 0 W

              ROB:
                Area = 0.201666 mm^2
                Peak Dynamic = 1.07537 W
                Subthreshold Leakage = 0.00444903 W
                Subthreshold Leakage with power gating = 0.00184714 W
                Gate Leakage = 2.72708e-05 W
                Runtime Dynamic = 0 W

          Integer ALUs (Count: 6 ):
            Area = 0.230726 mm^2
            Peak Dynamic = 0 W
            Subthreshold Leakage = 0.0781696 W
            Subthreshold Leakage with power gating = 0.021319 W
            Gate Leakage = 0.000632815 W
            Runtime Dynamic = 0.121647 W

          Floating Point Units (FPUs) (Count: 2 ):
            Area = 1.11344 mm^2
            Peak Dynamic = 0 W
            Subthreshold Leakage = 0.0943076 W
            Subthreshold Leakage with power gating = 0.0257203 W
            Gate Leakage = 0.000763458 W
            Runtime Dynamic = 0.36494 W

          Complex ALUs (Mul/Div) (Count: 1 ):
            Area = 0.115363 mm^2
            Peak Dynamic = 0 W
            Subthreshold Leakage = 0.0390848 W
            Subthreshold Leakage with power gating = 0.0106595 W
            Gate Leakage = 0.000316407 W
            Runtime Dynamic = 0.243293 W

          Results Broadcast Bus:
            Area Overhead = 0.0135028 mm^2
            Peak Dynamic = 0 W
            Subthreshold Leakage = 0.0262163 W
            Subthreshold Leakage with power gating = 0.0071499 W
            Gate Leakage = 0.000212232 W
            Runtime Dynamic = 0 W

    L2
    Area = 1.08921 mm^2
    Peak Dynamic = 0 W
    Subthreshold Leakage = 0.217129 W
    Subthreshold Leakage with power gating = 0.0858604 W
    Gate Leakage = 0.000539995 W
    Runtime Dynamic = 3.9683e-07 W

*****************************************************************************************
Core:
      Area = 8.83789 mm^2
      Peak Dynamic = 8.35527 W
      Subthreshold Leakage = 1.24068 W
      Subthreshold Leakage with power gating = 0.423947 W
      Gate Leakage = 0.00884884 W
      Runtime Dynamic = 0.72988 W

      Instruction Fetch Unit:
        Area = 1.27919 mm^2
        Peak Dynamic = 1.0986 W
        Subthreshold Leakage = 0.201057 W
        Subthreshold Leakage with power gating = 0.0747186 W
        Gate Leakage = 0.00161561 W
        Runtime Dynamic = 4.21188e-08 W

          Instruction Cache:
            Area = 0.652161 mm^2
            Peak Dynamic = 0 W
            Subthreshold Leakage = 0.0875977 W
            Subthreshold Leakage with power gating = 0.0398556 W
            Gate Leakage = 0.000896735 W
            Runtime Dynamic = 0 W

          Branch Target Buffer:
            Area = 0.153336 mm^2
            Peak Dynamic = 0.107627 W
            Subthreshold Leakage = 0.0179173 W
            Subthreshold Leakage with power gating = 0.00810978 W
            Gate Leakage = 7.44666e-05 W
            Runtime Dynamic = 0 W

          Branch Predictor:
            Area = 0.031053 mm^2
            Peak Dynamic = 0.0342172 W
            Subthreshold Leakage = 0.00458876 W
            Subthreshold Leakage with power gating = 0.00191983 W
            Gate Leakage = 2.16698e-05 W
            Runtime Dynamic = 0 W

              Global Predictor:
                Area = 0.00995681 mm^2
                Peak Dynamic = 0.00950852 W
                Subthreshold Leakage = 0.00172478 W
                Subthreshold Leakage with power gating = 0.000723306 W
                Gate Leakage = 7.8416e-06 W
                Runtime Dynamic = 0 W

              Local Predictor:
              L1_Local Predictor:
                Area = 0.00570481 mm^2
                Peak Dynamic = 0.00802062 W
                Subthreshold Leakage = 0.000876881 W
                Subthreshold Leakage with power gating = 0.000367388 W
                Gate Leakage = 4.43463e-06 W
                Runtime Dynamic = 0 W

              L2_Local Predictor:
                Area = 0.00289767 mm^2
                Peak Dynamic = 0.00398848 W
                Subthreshold Leakage = 0.00048391 W
                Subthreshold Leakage with power gating = 0.000197984 W
                Gate Leakage = 2.7078e-06 W
                Runtime Dynamic = 0 W

              Chooser:
                Area = 0.00995681 mm^2
                Peak Dynamic = 0.00950852 W
                Subthreshold Leakage = 0.00172478 W
                Subthreshold Leakage with power gating = 0.000723306 W
                Gate Leakage = 7.8416e-06 W
                Runtime Dynamic = 0 W

              RAS:
                Area = 0.00253692 mm^2
                Peak Dynamic = 0.00717956 W
                Subthreshold Leakage = 0.000262308 W
                Subthreshold Leakage with power gating = 0.000105831 W
                Gate Leakage = 1.552e-06 W
                Runtime Dynamic = 0 W

          Instruction Buffer:
            Area = 0.00457032 mm^2
            Peak Dynamic = 0.399167 W
            Subthreshold Leakage = 0.000368864 W
            Subthreshold Leakage with power gating = 0.00012853 W
            Gate Leakage = 2.16072e-06 W
            Runtime Dynamic = 0 W

          Instruction Decoder:
            Area = 0.427303 mm^2
            Peak Dynamic = 0.557586 W
            Subthreshold Leakage = 0.0861737 W
            Subthreshold Leakage with power gating = 0.0235019 W
            Gate Leakage = 0.000530726 W
            Runtime Dynamic = 0 W

      Renaming Unit:
        Area = 0.0885597 mm^2
        Peak Dynamic = 2.92993 W
        Subthreshold Leakage = 0.0187491 W
        Subthreshold Leakage with power gating = 0.009366 W
        Gate Leakage = 0.000274281 W
        Runtime Dynamic = 4.21188e-08 W

          Int Front End RAT:
            Area = 0.0277132 mm^2
            Peak Dynamic = 0.487067 W
            Subthreshold Leakage = 0.00156023 W
            Subthreshold Leakage with power gating = 0.000889329 W
            Gate Leakage = 1.20209e-05 W
            Runtime Dynamic = 0 W

          FP Front End RAT:
            Area = 0.0402703 mm^2
            Peak Dynamic = 2.26672 W
            Subthreshold Leakage = 0.0126281 W
            Subthreshold Leakage with power gating = 0.00719803 W
            Gate Leakage = 0.000171325 W
            Runtime Dynamic = 0 W

          Free List:
            Area = 0.00980768 mm^2
            Peak Dynamic = 0.0245223 W
            Subthreshold Leakage = 0.000150194 W
            Subthreshold Leakage with power gating = 7.5768e-05 W
            Gate Leakage = 1.08162e-06 W
            Runtime Dynamic = 0 W

      Load Store Unit:
        Area = 2.02906 mm^2
        Peak Dynamic = 0.882694 W
        Subthreshold Leakage = 0.150507 W
        Subthreshold Leakage with power gating = 0.0649054 W
        Gate Leakage = 0.00103703 W
        Runtime Dynamic = 4.21188e-08 W

          Data Cache:
            Area = 1.62445 mm^2
            Peak Dynamic = 0.882694 W
            Subthreshold Leakage = 0.14014 W
            Subthreshold Leakage with power gating = 0.060307 W
            Gate Leakage = 0.000901876 W
            Runtime Dynamic = 0 W

          LoadQ:
            Area = 0.0207189 mm^2
            Peak Dynamic = 0 W
            Subthreshold Leakage = 0.00252286 W
            Subthreshold Leakage with power gating = 0.00143803 W
            Gate Leakage = 1.97785e-05 W
            Runtime Dynamic = 0 W

          StoreQ:
            Area = 0.0247255 mm^2
            Peak Dynamic = 0 W
            Subthreshold Leakage = 0.0034342 W
            Subthreshold Leakage with power gating = 0.0019575 W
            Gate Leakage = 2.55214e-05 W
            Runtime Dynamic = 0 W

      Memory Management Unit:
        Area = 0.0478667 mm^2
        Peak Dynamic = 0.0758138 W
        Subthreshold Leakage = 0.010497 W
        Subthreshold Leakage with power gating = 0.00467217 W
        Gate Leakage = 0.000133538 W
        Runtime Dynamic = 4.21188e-08 W

          Itlb:
            Area = 0.0153187 mm^2
            Peak Dynamic = 0 W
            Subthreshold Leakage = 0.00236017 W
            Subthreshold Leakage with power gating = 0.0013453 W
            Gate Leakage = 1.72825e-05 W
            Runtime Dynamic = 0 W

          Dtlb:
            Area = 0.0217794 mm^2
            Peak Dynamic = 0 W
            Subthreshold Leakage = 0.00372634 W
            Subthreshold Leakage with power gating = 0.00212401 W
            Gate Leakage = 2.64018e-05 W
            Runtime Dynamic = 0 W

      Execution Unit:
        Area = 2.14962 mm^2
        Peak Dynamic = 3.36823 W
        Subthreshold Leakage = 0.277787 W
        Subthreshold Leakage with power gating = 0.0848929 W
        Gate Leakage = 0.00229396 W
        Runtime Dynamic = 0.72988 W

          Register Files:
            Area = 0.133129 mm^2
            Peak Dynamic = 0 W
            Subthreshold Leakage = 0.0028163 W
            Subthreshold Leakage with power gating = 0.000892763 W
            Gate Leakage = 2.138e-05 W
            Runtime Dynamic = 0 W

              Integer RF:
                Area = 0.0834736 mm^2
                Peak Dynamic = 0 W
                Subthreshold Leakage = 0.00172228 W
                Subthreshold Leakage with power gating = 0.000521558 W
                Gate Leakage = 1.3533e-05 W
                Runtime Dynamic = 0 W

              Floating Point RF:
                Area = 0.0496557 mm^2
                Peak Dynamic = 0 W
                Subthreshold Leakage = 0.00109402 W
                Subthreshold Leakage with power gating = 0.000371205 W
                Gate Leakage = 7.84697e-06 W
                Runtime Dynamic = 0 W

          Instruction Scheduler:
            Area = 0.53269 mm^2
            Peak Dynamic = 3.36823 W
            Subthreshold Leakage = 0.0327819 W
            Subthreshold Leakage with power gating = 0.0179486 W
            Gate Leakage = 0.000257818 W
            Runtime Dynamic = 0 W

              Instruction Window:
                Area = 0.250713 mm^2
                Peak Dynamic = 1.44458 W
                Subthreshold Leakage = 0.0233811 W
                Subthreshold Leakage with power gating = 0.0133031 W
                Gate Leakage = 0.000189603 W
                Runtime Dynamic = 0 W

              FP Instruction Window:
                Area = 0.0803106 mm^2
                Peak Dynamic = 0.848283 W
                Subthreshold Leakage = 0.00495177 W
                Subthreshold Leakage with power gating = 0.00279839 W
                Gate Leakage = 4.09447e-05 W
                Runtime Dynamic = 0 W

              ROB:
                Area = 0.201666 mm^2
                Peak Dynamic = 1.07537 W
                Subthreshold Leakage = 0.00444903 W
                Subthreshold Leakage with power gating = 0.00184714 W
                Gate Leakage = 2.72708e-05 W
                Runtime Dynamic = 0 W

          Integer ALUs (Count: 6 ):
            Area = 0.230726 mm^2
            Peak Dynamic = 0 W
            Subthreshold Leakage = 0.0781696 W
            Subthreshold Leakage with power gating = 0.021319 W
            Gate Leakage = 0.000632815 W
            Runtime Dynamic = 0.121647 W

          Floating Point Units (FPUs) (Count: 2 ):
            Area = 1.11344 mm^2
            Peak Dynamic = 0 W
            Subthreshold Leakage = 0.0943076 W
            Subthreshold Leakage with power gating = 0.0257203 W
            Gate Leakage = 0.000763458 W
            Runtime Dynamic = 0.36494 W

          Complex ALUs (Mul/Div) (Count: 1 ):
            Area = 0.115363 mm^2
            Peak Dynamic = 0 W
            Subthreshold Leakage = 0.0390848 W
            Subthreshold Leakage with power gating = 0.0106595 W
            Gate Leakage = 0.000316407 W
            Runtime Dynamic = 0.243293 W

          Results Broadcast Bus:
            Area Overhead = 0.0135028 mm^2
            Peak Dynamic = 0 W
            Subthreshold Leakage = 0.0262163 W
            Subthreshold Leakage with power gating = 0.0071499 W
            Gate Leakage = 0.000212232 W
            Runtime Dynamic = 0 W

    L2
    Area = 1.08921 mm^2
    Peak Dynamic = 0 W
    Subthreshold Leakage = 0.217129 W
    Subthreshold Leakage with power gating = 0.0858604 W
    Gate Leakage = 0.000539995 W
    Runtime Dynamic = 3.9683e-07 W

*****************************************************************************************
      L3
      Area = 2.94176 mm^2
      Peak Dynamic = 0.0432693 W
      Subthreshold Leakage = 0.28165 W
      Subthreshold Leakage with power gating = 0.109476 W
      Gate Leakage = 0.000625116 W
      Runtime Dynamic = 0.0339939 W

*****************************************************************************************
      L3
      Area = 2.94176 mm^2
      Peak Dynamic = 0.0986206 W
      Subthreshold Leakage = 0.28165 W
      Subthreshold Leakage with power gating = 0.109476 W
      Gate Leakage = 0.000625116 W
      Runtime Dynamic = 0.0774882 W

*****************************************************************************************
      L3
      Area = 2.94176 mm^2
      Peak Dynamic = 0.164403 W
      Subthreshold Leakage = 0.28165 W
      Subthreshold Leakage with power gating = 0.109476 W
      Gate Leakage = 0.000625116 W
      Runtime Dynamic = 0.129113 W

*****************************************************************************************
      L3
      Area = 2.94176 mm^2
      Peak Dynamic = 0.0524813 W
      Subthreshold Leakage = 0.28165 W
      Subthreshold Leakage with power gating = 0.109476 W
      Gate Leakage = 0.000625116 W
      Runtime Dynamic = 0.0412276 W

*****************************************************************************************
      L3
      Area = 2.94176 mm^2
      Peak Dynamic = 0 W
      Subthreshold Leakage = 0.28165 W
      Subthreshold Leakage with power gating = 0.109476 W
      Gate Leakage = 0.000625116 W
      Runtime Dynamic = 3.30925e-07 W

*****************************************************************************************
      L3
      Area = 2.94176 mm^2
      Peak Dynamic = 0 W
      Subthreshold Leakage = 0.28165 W
      Subthreshold Leakage with power gating = 0.109476 W
      Gate Leakage = 0.000625116 W
      Runtime Dynamic = 3.30925e-07 W

*****************************************************************************************
      L3
      Area = 2.94176 mm^2
      Peak Dynamic = 0 W
      Subthreshold Leakage = 0.28165 W
      Subthreshold Leakage with power gating = 0.109476 W
      Gate Leakage = 0.000625116 W
      Runtime Dynamic = 3.30925e-07 W

*****************************************************************************************
      L3
      Area = 2.94176 mm^2
      Peak Dynamic = 0 W
      Subthreshold Leakage = 0.28165 W
      Subthreshold Leakage with power gating = 0.109476 W
      Gate Leakage = 0.000625116 W
      Runtime Dynamic = 3.30925e-07 W

*****************************************************************************************
      L3
      Area = 2.94176 mm^2
      Peak Dynamic = 0 W
      Subthreshold Leakage = 0.28165 W
      Subthreshold Leakage with power gating = 0.109476 W
      Gate Leakage = 0.000625116 W
      Runtime Dynamic = 3.30925e-07 W

*****************************************************************************************
      L3
      Area = 2.94176 mm^2
      Peak Dynamic = 0 W
      Subthreshold Leakage = 0.28165 W
      Subthreshold Leakage with power gating = 0.109476 W
      Gate Leakage = 0.000625116 W
      Runtime Dynamic = 3.30925e-07 W

*****************************************************************************************
      L3
      Area = 2.94176 mm^2
      Peak Dynamic = 0 W
      Subthreshold Leakage = 0.28165 W
      Subthreshold Leakage with power gating = 0.109476 W
      Gate Leakage = 0.000625116 W
      Runtime Dynamic = 3.30925e-07 W

*****************************************************************************************
      L3
      Area = 2.94176 mm^2
      Peak Dynamic = 0 W
      Subthreshold Leakage = 0.28165 W
      Subthreshold Leakage with power gating = 0.109476 W
      Gate Leakage = 0.000625116 W
      Runtime Dynamic = 3.30925e-07 W

*****************************************************************************************
      L3
      Area = 2.94176 mm^2
      Peak Dynamic = 0 W
      Subthreshold Leakage = 0.28165 W
      Subthreshold Leakage with power gating = 0.109476 W
      Gate Leakage = 0.000625116 W
      Runtime Dynamic = 3.30925e-07 W

*****************************************************************************************
      L3
      Area = 2.94176 mm^2
      Peak Dynamic = 0 W
      Subthreshold Leakage = 0.28165 W
      Subthreshold Leakage with power gating = 0.109476 W
      Gate Leakage = 0.000625116 W
      Runtime Dynamic = 3.30925e-07 W

*****************************************************************************************
      L3
      Area = 2.94176 mm^2
      Peak Dynamic = 0 W
      Subthreshold Leakage = 0.28165 W
      Subthreshold Leakage with power gating = 0.109476 W
      Gate Leakage = 0.000625116 W
      Runtime Dynamic = 3.30925e-07 W

*****************************************************************************************
      L3
      Area = 2.94176 mm^2
      Peak Dynamic = 0 W
      Subthreshold Leakage = 0.28165 W
      Subthreshold Leakage with power gating = 0.109476 W
      Gate Leakage = 0.000625116 W
      Runtime Dynamic = 3.30925e-07 W

*****************************************************************************************
BUSES
      Area = 1.69427 mm^2
      Peak Dynamic = 0 W
      Subthreshold Leakage = 0.0488532 W
      Subthreshold Leakage with power gating = 0.014656 W
      Gate Leakage = 0.000679296 W
      Runtime Dynamic = 0 W

      Bus: 
        Area = 1.69427 mm^2
        Peak Dynamic = 0 W
        Subthreshold Leakage = 0.0488532 W
        Subthreshold Leakage with power gating = 0.014656 W
        Gate Leakage = 0.000679296 W
        Runtime Dynamic = 0 W

*****************************************************************************************
